Cpptraj Generated mol2 file.
     RDKit          3D

 51 53  0  0  0  0  0  0  0  0999 V2000
   35.7997   55.1091   27.8473 C   0  0  0  0  0  0  0  0  0  0  0  0
   36.0211   55.4673   29.1389 S   0  0  0  0  0  0  0  0  0  0  0  0
   36.7096   56.5410   29.5201 C   0  0  0  0  0  3  0  0  0  0  0  0
   36.6605   57.7603   28.8420 C   0  0  0  0  0  3  0  0  0  0  0  0
   37.3301   58.8703   29.1875 N   0  0  0  0  0  2  0  0  0  0  0  0
   38.0553   58.7801   30.3847 C   0  0  0  0  0  3  0  0  0  0  0  0
   38.8212   59.9135   30.6445 N   0  0  0  0  0  0  0  0  0  0  0  0
   38.4528   60.4330   31.9560 C   0  0  0  0  0  0  0  0  0  0  0  0
   39.2996   61.6497   32.4566 C   0  0  2  0  0  0  0  0  0  0  0  0
   39.3628   61.5908   34.0051 C   0  0  0  0  0  0  0  0  0  0  0  0
   38.0090   61.7586   34.7007 N   0  0  0  0  0  0  0  0  0  0  0  0
   37.5873   62.8599   35.4094 C   0  0  0  0  0  3  0  0  0  0  0  0
   36.4114   63.4530   35.0783 N   0  0  0  0  0  2  0  0  0  0  0  0
   36.3493   64.5620   35.8061 C   0  0  0  0  0  3  0  0  0  0  0  0
   37.4323   64.8409   36.6473 C   0  0  0  0  0  3  0  0  0  0  0  0
   38.6283   63.6040   36.6512 S   0  0  0  0  0  0  0  0  0  0  0  0
   37.3760   65.9040   37.5265 C   0  0  0  0  0  3  0  0  0  0  0  0
   36.2011   66.7084   37.6002 C   0  0  0  0  0  3  0  0  0  0  0  0
   35.1269   66.4743   36.6552 C   0  0  0  0  0  3  0  0  0  0  0  0
   35.2369   65.3412   35.7955 C   0  0  0  0  0  3  0  0  0  0  0  0
   36.1109   68.0865   38.7988 S   0  0  0  0  0  4  0  0  0  0  0  0
   35.5901   67.4551   40.2783 N   0  0  0  0  0  0  0  0  0  0  0  0
   35.0541   69.0163   38.3974 O   0  0  0  0  0  1  0  0  0  0  0  0
   37.4474   68.6272   39.1211 O   0  0  0  0  0  1  0  0  0  0  0  0
   38.6513   62.9766   31.8964 C   0  0  0  0  0  0  0  0  0  0  0  0
   39.3913   64.2443   32.2416 C   0  0  0  0  0  3  0  0  0  0  0  0
   38.7612   65.3765   31.8412 N   0  0  0  0  0  0  0  0  0  0  0  0
   40.3993   64.3929   32.8519 O   0  0  0  0  0  1  0  0  0  0  0  0
   38.0334   57.7047   31.2525 N   0  0  0  0  0  2  0  0  0  0  0  0
   37.4244   56.6112   30.7411 C   0  0  0  0  0  3  0  0  0  0  0  0
   36.7776   55.6061   27.8631 H   0  0  0  0  0  0  0  0  0  0  0  0
   35.4786   55.9427   27.2105 H   0  0  0  0  0  0  0  0  0  0  0  0
   35.1025   55.6968   27.2374 H   0  0  0  0  0  0  0  0  0  0  0  0
   36.0389   57.8952   27.9581 H   0  0  0  0  0  0  0  0  0  0  0  0
   38.8459   60.6861   29.9914 H   0  0  0  0  0  0  0  0  0  0  0  0
   37.3824   60.6631   32.0247 H   0  0  0  0  0  0  0  0  0  0  0  0
   38.6393   59.5920   32.6352 H   0  0  0  0  0  0  0  0  0  0  0  0
   40.3123   61.5355   32.0506 H   0  0  0  0  0  0  0  0  0  0  0  0
   39.8246   60.6599   34.3567 H   0  0  0  0  0  0  0  0  0  0  0  0
   40.0509   62.3774   34.3386 H   0  0  0  0  0  0  0  0  0  0  0  0
   37.2290   61.1479   34.4940 H   0  0  0  0  0  0  0  0  0  0  0  0
   38.2561   66.1194   38.1252 H   0  0  0  0  0  0  0  0  0  0  0  0
   34.2408   67.0991   36.5928 H   0  0  0  0  0  0  0  0  0  0  0  0
   34.4173   65.1090   35.1220 H   0  0  0  0  0  0  0  0  0  0  0  0
   35.1273   68.3533   40.4102 H   0  0  0  0  0  0  0  0  0  0  0  0
   36.4583   67.5269   40.8069 H   0  0  0  0  0  0  0  0  0  0  0  0
   38.7458   62.7476   30.8277 H   0  0  0  0  0  0  0  0  0  0  0  0
   37.5781   62.9919   32.1232 H   0  0  0  0  0  0  0  0  0  0  0  0
   37.7718   65.2733   31.6494 H   0  0  0  0  0  0  0  0  0  0  0  0
   39.0983   66.1942   32.3349 H   0  0  0  0  0  0  0  0  0  0  0  0
   37.4606   55.6656   31.2802 H   0  0  0  0  0  0  0  0  0  0  0  0
 29 30  1  0
 26 27  1  0
 26 28  1  0
 25 26  1  0
 21 22  1  0
 21 23  1  0
 21 24  1  0
 19 20  1  0
 18 19  1  0
 18 21  1  0
 17 18  1  0
 15 16  1  0
 15 17  1  0
 14 15  1  0
 14 20  1  0
 13 14  1  0
 12 13  1  0
 12 16  1  0
 11 12  1  0
 10 11  1  0
  9 10  1  0
  9 25  1  0
  8  9  1  0
  7  8  1  0
  6  7  1  0
  6 29  1  0
  5  6  1  0
  4  5  1  0
  3  4  1  0
  3 30  1  0
  2  3  1  0
  1  2  1  0
 30 51  1  0
 27 49  1  0
 27 50  1  0
 25 47  1  0
 25 48  1  0
 22 45  1  0
 22 46  1  0
 20 44  1  0
 19 43  1  0
 17 42  1  0
 11 41  1  0
 10 39  1  0
 10 40  1  0
  9 38  1  6
  8 36  1  0
  8 37  1  0
  7 35  1  0
  4 34  1  0
  1 31  1  0
  1 32  1  0
  1 33  1  0
M  RAD  8   3   2   4   2   6   2  12   2  14   2  15   2  17   2  18   2
M  CHG  6   5  -1  13  -1  23  -1  24  -1  28  -1  29  -1
M  RAD  4  19   2  20   2  26   2  30   2
M  END
>  <_TriposChargeType>  (1) 
USER_CHARGES

$$$$
