@<TRIPOS>MOLECULE
Cpptraj Generated mol2 file.
   51    53     1     0     0
SMALL
USER_CHARGES


@<TRIPOS>ATOM
      1 C1         35.7667   54.2716   24.2929 C.aa         1 L1      -0.191531
      2 S1         35.2814   54.2771   26.0568 S.ab         1 L1      -0.228646
      3 C2         35.7845   55.9141   26.6735 C.ad         1 L1       0.101456
      4 C3         36.0329   57.0447   25.8789 C.ae         1 L1      -0.073920
      5 N1         36.5176   58.2095   26.3341 N.af         1 L1      -0.246948
      6 C4         36.5748   58.2823   27.6730 C.ah         1 L1       0.319413
      7 N2         36.8930   59.4967   28.1592 N.ai         1 L1      -0.557573
      8 C5         36.5246   60.0162   29.4707 C.aj         1 L1       0.051107
      9 C6         37.3714   61.2329   29.9713 C.ak         1 L1       0.077301
     10 C7         37.4346   61.1740   31.5198 C.an         1 L1       0.053598
     11 N3         36.0808   61.3418   32.2154 N.ao         1 L1      -0.479438
     12 C8         35.6591   62.4431   32.9241 C.ap         1 L1       0.229221
     13 N4         34.4832   63.0362   32.5930 N.aq         1 L1      -0.249524
     14 C9         34.4211   64.1452   33.3208 C.av         1 L1       0.131441
     15 C10        35.5041   64.4241   34.1620 C.aw         1 L1       0.085106
     16 S2         36.7001   63.1872   34.1659 S.ax         1 L1      -0.097455
     17 C11        35.4478   65.4872   35.0412 C.ay         1 L1      -0.252778
     18 C12        34.2729   66.2916   35.1149 C.az         1 L1       0.025956
     19 C13        33.1987   66.0575   34.1699 C.bb         1 L1      -0.195312
     20 C14        33.3087   64.9244   33.3102 C.bc         1 L1      -0.202584
     21 S3         34.1827   67.6697   36.3135 S.bd         1 L1       1.098625
     22 N5         33.6619   67.0383   37.7930 N.bf         1 L1      -0.858785
     23 O1         33.1259   68.5995   35.9121 O.bg         1 L1      -0.568420
     24 O2         35.5192   68.2104   36.6358 O.bh         1 L1      -0.568420
     25 C15        36.7231   62.5598   29.4111 C.bj         1 L1      -0.135877
     26 C16        37.4631   63.8275   29.7563 C.bk         1 L1       0.735185
     27 N6         36.8330   64.9597   29.3559 N.bl         1 L1      -0.954435
     28 O3         38.4711   63.9761   30.3666 O.bm         1 L1      -0.597538
     29 N7         36.2258   57.3111   28.5771 N.bn         1 L1      -0.246948
     30 C17        35.8583   56.0889   28.1110 C.bo         1 L1      -0.073920
     31 H1         36.7446   54.7686   24.3087 H.bp         1 L1       0.112660
     32 H2         35.9824   53.2540   23.9445 H.bq         1 L1       0.112660
     33 H3         35.0695   54.8593   23.6830 H.bs         1 L1       0.112660
     34 H4         35.9559   57.0011   24.7935 H.bt         1 L1       0.143939
     35 H5         37.1578   60.1852   27.4665 H.bu         1 L1       0.353866
     36 H6         35.4542   60.2463   29.5394 H.bv         1 L1       0.071391
     37 H7         36.7111   59.1752   30.1499 H.bw         1 L1       0.071391
     38 H8         38.3841   61.1187   29.5653 H.bx         1 L1       0.006223
     39 H9         37.8964   60.2431   31.8714 H.by         1 L1       0.069763
     40 H10        38.1227   61.9606   31.8533 H.bz         1 L1       0.069763
     41 H11        35.3008   60.7311   32.0087 H.cb         1 L1       0.370757
     42 H12        36.3279   65.7026   35.6399 H.ci         1 L1       0.174018
     43 H13        32.3126   66.6823   34.1075 H.cj         1 L1       0.172463
     44 H14        32.4891   64.6922   32.6367 H.ck         1 L1       0.174344
     45 H15        33.1991   67.9365   37.9249 H.cm         1 L1       0.387550
     46 H16        34.5301   67.1101   38.3216 H.cn         1 L1       0.387550
     47 H17        36.8176   62.3308   28.3424 H.ct         1 L1       0.053879
     48 H18        35.6499   62.5751   29.6379 H.cw         1 L1       0.053879
     49 H19        35.8436   64.8565   29.1641 H.da         1 L1       0.414473
     50 H20        37.1701   65.7774   29.8496 H.db         1 L1       0.414473
     51 H21        35.5891   55.3434   28.8578 H.dc         1 L1       0.143939
@<TRIPOS>BOND
    1    29    30 1
    2    26    27 1
    3    26    28 1
    4    25    26 1
    5    21    22 1
    6    21    23 1
    7    21    24 1
    8    19    20 1
    9    18    19 1
   10    18    21 1
   11    17    18 1
   12    15    16 1
   13    15    17 1
   14    14    15 1
   15    14    20 1
   16    13    14 1
   17    12    13 1
   18    12    16 1
   19    11    12 1
   20    10    11 1
   21     9    10 1
   22     9    25 1
   23     8     9 1
   24     7     8 1
   25     6     7 1
   26     6    29 1
   27     5     6 1
   28     4     5 1
   29     3     4 1
   30     3    30 1
   31     2     3 1
   32     1     2 1
   33    30    51 1
   34    27    49 1
   35    27    50 1
   36    25    47 1
   37    25    48 1
   38    22    45 1
   39    22    46 1
   40    20    44 1
   41    19    43 1
   42    17    42 1
   43    11    41 1
   44    10    39 1
   45    10    40 1
   46     9    38 1
   47     8    36 1
   48     8    37 1
   49     7    35 1
   50     4    34 1
   51     1    31 1
   52     1    32 1
   53     1    33 1
@<TRIPOS>SUBSTRUCTURE
      1 L1                1 L.****               0 L.****  L.**** 
