
     RDKit          3D

 58 61  0  0  0  0  0  0  0  0999 V2000
  -24.8539   26.8549   -6.7118 C   0  0  0  0  0  0  0  0  0  0  0  0
  -25.2343   28.1452   -5.4866 S   0  0  0  0  0  0  0  0  0  0  0  0
  -25.6679   29.3648   -6.7280 C   0  0  0  0  0  0  0  0  0  0  0  0
  -26.8960   29.3072   -7.3881 C   0  0  0  0  0  0  0  0  0  0  0  0
  -27.2069   30.2433   -8.3216 N   0  0  0  0  0  0  0  0  0  0  0  0
  -26.3380   31.2460   -8.6278 C   0  0  0  0  0  0  0  0  0  0  0  0
  -26.6777   32.2275   -9.6109 N   0  0  0  0  0  0  0  0  0  0  0  0
  -25.6679   33.1121  -10.1929 C   0  0  0  0  0  0  0  0  0  0  0  0
  -26.2690   34.1380  -11.1841 C   0  0  0  0  0  0  0  0  0  0  0  0
  -27.1910   33.4676  -12.2259 C   0  0  0  0  0  0  0  0  0  0  0  0
  -25.1200   34.8349  -11.9437 C   0  0  0  0  0  0  0  0  0  0  0  0
  -24.5048   35.8811  -11.1374 N   0  0  0  0  0  0  0  0  0  0  0  0
  -24.7252   37.2674  -11.4152 C   0  0  0  0  0  0  0  0  0  0  0  0
  -24.3295   38.2692  -10.5912 N   0  0  0  0  0  0  0  0  0  0  0  0
  -24.6628   39.4770  -11.1123 C   0  0  0  0  0  0  0  0  0  0  0  0
  -25.3129   39.4351  -12.3342 C   0  0  0  0  0  0  0  0  0  0  0  0
  -25.4972   37.8351  -12.8105 S   0  0  0  0  0  0  0  0  0  0  0  0
  -25.7230   40.5890  -12.9958 C   0  0  0  0  0  0  0  0  0  0  0  0
  -25.4572   41.8409  -12.3969 C   0  0  0  0  0  0  0  0  0  0  0  0
  -24.8008   41.8815  -11.1406 C   0  0  0  0  0  0  0  0  0  0  0  0
  -24.3985   40.6989  -10.4975 C   0  0  0  0  0  0  0  0  0  0  0  0
  -25.8758   43.1039  -13.0509 C   0  0  0  0  0  0  0  0  0  0  0  0
  -26.1549   43.0994  -14.2815 O   0  0  0  0  0  0  0  0  0  0  0  0
  -25.9867   44.3264  -12.3055 N   0  0  0  0  0  0  0  0  0  0  0  0
  -26.2611   45.5982  -12.9730 C   0  0  0  0  0  0  0  0  0  0  0  0
  -25.3415   46.6701  -12.4688 C   0  0  0  0  0  0  0  0  0  0  0  0
  -24.2364   46.4250  -11.7391 N   0  0  0  0  0  0  0  0  0  0  0  0
  -23.7001   47.6019  -11.4455 N   0  0  0  0  0  0  0  0  0  0  0  0
  -24.4892   48.5474  -11.9920 C   0  0  0  0  0  0  0  0  0  0  0  0
  -25.5358   47.9929  -12.6275 N   0  0  0  0  0  0  0  0  0  0  0  0
  -26.5858   48.6754  -13.3757 C   0  0  0  0  0  0  0  0  0  0  0  0
  -25.1394   31.3178   -7.9884 N   0  0  0  0  0  0  0  0  0  0  0  0
  -24.7902   30.4015   -7.0485 C   0  0  0  0  0  0  0  0  0  0  0  0
  -24.2757   26.0621   -6.2371 H   0  0  0  0  0  0  0  0  0  0  0  0
  -25.7828   26.4417   -7.1047 H   0  0  0  0  0  0  0  0  0  0  0  0
  -24.2751   27.2879   -7.5277 H   0  0  0  0  0  0  0  0  0  0  0  0
  -27.6207   28.5221   -7.1720 H   0  0  0  0  0  0  0  0  0  0  0  0
  -27.6436   32.2970   -9.8979 H   0  0  0  0  0  0  0  0  0  0  0  0
  -25.2680   33.6765   -9.3505 H   0  0  0  0  0  0  0  0  0  0  0  0
  -25.0151   32.4553  -10.7679 H   0  0  0  0  0  0  0  0  0  0  0  0
  -26.8589   34.8500  -10.6069 H   0  0  0  0  0  0  0  0  0  0  0  0
  -27.9686   32.9022  -11.7124 H   0  0  0  0  0  0  0  0  0  0  0  0
  -27.6510   34.2335  -12.8503 H   0  0  0  0  0  0  0  0  0  0  0  0
  -26.6042   32.7939  -12.8503 H   0  0  0  0  0  0  0  0  0  0  0  0
  -24.3361   34.0938  -12.0997 H   0  0  0  0  0  0  0  0  0  0  0  0
  -25.5597   35.3508  -12.7973 H   0  0  0  0  0  0  0  0  0  0  0  0
  -23.9065   35.6376  -10.3610 H   0  0  0  0  0  0  0  0  0  0  0  0
  -26.2370   40.5143  -13.9541 H   0  0  0  0  0  0  0  0  0  0  0  0
  -24.6018   42.8396  -10.6603 H   0  0  0  0  0  0  0  0  0  0  0  0
  -23.8882   40.7290   -9.5349 H   0  0  0  0  0  0  0  0  0  0  0  0
  -25.8707   44.2915  -11.3028 H   0  0  0  0  0  0  0  0  0  0  0  0
  -26.0230   45.4441  -14.0254 H   0  0  0  0  0  0  0  0  0  0  0  0
  -27.2716   45.8816  -12.6785 H   0  0  0  0  0  0  0  0  0  0  0  0
  -24.3051   49.6199  -11.9283 H   0  0  0  0  0  0  0  0  0  0  0  0
  -26.4042   49.7500  -13.3588 H   0  0  0  0  0  0  0  0  0  0  0  0
  -26.5847   48.3230  -14.4072 H   0  0  0  0  0  0  0  0  0  0  0  0
  -27.5530   48.4632  -12.9203 H   0  0  0  0  0  0  0  0  0  0  0  0
  -23.8209   30.4966   -6.5590 H   0  0  0  0  0  0  0  0  0  0  0  0
  1  2  1  0
  2  3  1  0
  3  4  2  0
  4  5  1  0
  5  6  2  0
  6  7  1  0
  7  8  1  0
  9  8  1  0
  9 10  1  0
  9 11  1  0
 11 12  1  0
 12 13  1  0
 13 14  2  0
 14 15  1  0
 15 16  2  0
 16 17  1  0
 13 17  1  0
 16 18  1  0
 18 19  2  0
 19 20  1  0
 20 21  2  0
 15 21  1  0
 19 22  1  0
 22 23  2  0
 22 24  1  0
 24 25  1  0
 25 26  1  0
 26 27  2  0
 27 28  1  0
 28 29  2  0
 29 30  1  0
 26 30  1  0
 30 31  1  0
  6 32  1  0
 32 33  2  0
  3 33  1  0
  1 34  1  0
  1 35  1  0
  1 36  1  0
  4 37  1  0
  7 38  1  0
  8 39  1  0
  8 40  1  0
  9 41  1  0
 10 42  1  0
 10 43  1  0
 10 44  1  0
 11 45  1  0
 11 46  1  0
 12 47  1  0
 18 48  1  0
 20 49  1  0
 21 50  1  0
 24 51  1  0
 25 52  1  0
 25 53  1  0
 29 54  1  0
 31 55  1  0
 31 56  1  0
 31 57  1  0
 33 58  1  0
M  END
>  <21666828|PCSK9_Human_KD_nM_PREFIX|1>  (1) 
<

>  <21666828|PCSK9_Human_KD_nM|1>  (1) 
200

>  <CHROM.1>  (1) 
76.64867400,-165.05180070,-177.28839164,-49.76130820,-79.42548253,-106.61364208
170.58450865,-18.23070578,-133.67853290,13.79269210

>  <COMPOUND_ID>  (1) 
Example_23

>  <EmbedRMS>  (1) 
0.08747239923509068

>  <GVK_ID>  (1) 
124889469

>  <ISOMER>  (1) 
None

>  <Kd_Range>  (1) 
< 200

>  <Name>  (1) 


>  <PAGE>  (1) 
58

>  <REFERENCE>  (1) 
WO 2020/150474 A1

>  <REF_ID>  (1) 
2133368

>  <RI>  (1) 
2.14494e+07

>  <Rbt.Current_Directory>  (1) 
/dev/shm/dwight/Example-23

>  <Rbt.Executable>  (1) 
rbdock ($Id: //depot/dev/client3/rdock/2013.1/src/exe/rbdock.cxx#4 $)

>  <Rbt.Library>  (1) 
libRbt.so (2013.1, Build901 2013/11/27)

>  <Rbt.Parameter_File>  (1) 
dock.prm

>  <Rbt.Receptor>  (1) 
receptor.prm

>  <SCORE>  (1) 
25.9356

>  <SCORE.INTER>  (1) 
21.574

>  <SCORE.INTER.CONST>  (1) 
1

>  <SCORE.INTER.POLAR>  (1) 
-3.05923

>  <SCORE.INTER.REPUL>  (1) 
0.0126833

>  <SCORE.INTER.ROT>  (1) 
10

>  <SCORE.INTER.VDW>  (1) 
16.512

>  <SCORE.INTER.norm>  (1) 
0.653757

>  <SCORE.INTRA>  (1) 
4.36162

>  <SCORE.INTRA.DIHEDRAL>  (1) 
2.33292

>  <SCORE.INTRA.DIHEDRAL.0>  (1) 
13.7066

>  <SCORE.INTRA.POLAR>  (1) 
0

>  <SCORE.INTRA.POLAR.0>  (1) 
0

>  <SCORE.INTRA.REPUL>  (1) 
0

>  <SCORE.INTRA.REPUL.0>  (1) 
0

>  <SCORE.INTRA.VDW>  (1) 
3.19516

>  <SCORE.INTRA.VDW.0>  (1) 
1.29349

>  <SCORE.INTRA.norm>  (1) 
0.13217

>  <SCORE.RESTR>  (1) 
0

>  <SCORE.RESTR.CAVITY>  (1) 
0

>  <SCORE.RESTR.norm>  (1) 
0

>  <SCORE.SYSTEM>  (1) 
0

>  <SCORE.SYSTEM.CONST>  (1) 
0

>  <SCORE.SYSTEM.DIHEDRAL>  (1) 
0

>  <SCORE.SYSTEM.norm>  (1) 
0

>  <SCORE.heavy>  (1) 
33

>  <SCORE.norm>  (1) 
0.785928

>  <TETHERED ATOMS>  (1) 
9,8,11,12,13,7,6

>  <_MOLCOUNT>  (1) 
1

$$$$
