Cpptraj Generated mol2 file.
     RDKit          3D

 42 44  0  0  0  0  0  0  0  0999 V2000
   37.7300   69.3443   35.6952 C   0  0  0  0  0  0  0  0  0  0  0  0
   37.6542   67.6027   36.2692 S   0  0  0  0  0  0  0  0  0  0  0  0
   38.3903   66.6254   34.9349 C   0  0  0  0  0  3  0  0  0  0  0  0
   37.3267   65.7084   35.0074 C   0  0  0  0  0  3  0  0  0  0  0  0
   37.5582   64.3591   34.8177 N   0  0  0  0  0  2  0  0  0  0  0  0
   38.8881   63.9543   34.6077 C   0  0  0  0  0  3  0  0  0  0  0  0
   39.2226   62.6604   34.4136 N   0  0  0  0  0  0  0  0  0  0  0  0
   39.4879   61.2290   34.6611 C   0  0  0  0  0  0  0  0  0  0  0  0
   40.9762   61.0048   34.3813 C   0  0  0  0  0  0  0  0  0  0  0  0
   41.3383   59.5025   34.3843 C   0  0  2  0  0  0  0  0  0  0  0  0
   42.8664   59.1451   34.2966 C   0  0  0  0  0  0  0  0  0  0  0  0
   40.6358   58.9626   33.2301 N   0  0  0  0  0  0  0  0  0  0  0  0
   40.0150   57.7553   33.1944 C   0  0  0  0  0  3  0  0  0  0  0  0
   40.0227   56.9045   34.2017 N   0  0  0  0  0  2  0  0  0  0  0  0
   39.2804   55.9585   33.6405 C   0  0  0  0  0  3  0  0  0  0  0  0
   38.9772   56.1697   32.3458 C   0  0  0  0  0  3  0  0  0  0  0  0
   39.4965   57.4129   31.9468 O   0  0  0  0  0  0  0  0  0  0  0  0
   38.0932   55.3660   31.6019 C   0  0  0  0  0  3  0  0  0  0  0  0
   37.5516   54.2342   32.2177 C   0  0  0  0  0  3  0  0  0  0  0  0
   37.9220   53.9369   33.5965 C   0  0  0  0  0  3  0  0  0  0  0  0
   38.7433   54.8629   34.3142 C   0  0  0  0  0  3  0  0  0  0  0  0
   39.9245   64.8643   34.4928 N   0  0  0  0  0  2  0  0  0  0  0  0
   39.6860   66.1896   34.6078 C   0  0  0  0  0  3  0  0  0  0  0  0
   37.4010   70.0251   36.4900 H   0  0  0  0  0  0  0  0  0  0  0  0
   38.7846   69.5125   35.4444 H   0  0  0  0  0  0  0  0  0  0  0  0
   37.0450   69.5788   34.8710 H   0  0  0  0  0  0  0  0  0  0  0  0
   37.7762   66.6897   35.1520 H   0  0  0  0  0  0  0  0  0  0  0  0
   38.4322   62.1024   34.7103 H   0  0  0  0  0  0  0  0  0  0  0  0
   39.3322   60.8809   35.6897 H   0  0  0  0  0  0  0  0  0  0  0  0
   38.8669   60.7255   33.9099 H   0  0  0  0  0  0  0  0  0  0  0  0
   41.2625   61.3161   33.3691 H   0  0  0  0  0  0  0  0  0  0  0  0
   41.5546   61.5662   35.1253 H   0  0  0  0  0  0  0  0  0  0  0  0
   40.9377   59.2251   35.3671 H   0  0  0  0  0  0  0  0  0  0  0  0
   43.2921   59.5851   35.2069 H   0  0  0  0  0  0  0  0  0  0  0  0
   43.0500   58.0823   34.4974 H   0  0  0  0  0  0  0  0  0  0  0  0
   43.3308   59.5426   33.3857 H   0  0  0  0  0  0  0  0  0  0  0  0
   40.1939   59.6635   32.6491 H   0  0  0  0  0  0  0  0  0  0  0  0
   37.8129   55.7403   30.6217 H   0  0  0  0  0  0  0  0  0  0  0  0
   36.9380   53.5736   31.6124 H   0  0  0  0  0  0  0  0  0  0  0  0
   37.5177   53.0330   34.0427 H   0  0  0  0  0  0  0  0  0  0  0  0
   39.0244   54.6554   35.3424 H   0  0  0  0  0  0  0  0  0  0  0  0
   40.4593   66.9427   34.4640 H   0  0  0  0  0  0  0  0  0  0  0  0
 22 23  1  0
 20 21  1  0
 19 20  1  0
 18 19  1  0
 16 17  1  0
 16 18  1  0
 15 16  1  0
 15 21  1  0
 14 15  1  0
 13 14  1  0
 13 17  1  0
 12 13  1  0
 10 11  1  0
 10 12  1  0
  9 10  1  0
  8  9  1  0
  7  8  1  0
  6  7  1  0
  6 22  1  0
  5  6  1  0
  4  5  1  0
  3  4  1  0
  3 23  1  0
  2  3  1  0
  1  2  1  0
 23 42  1  0
 21 41  1  0
 20 40  1  0
 19 39  1  0
 18 38  1  0
 12 37  1  0
 11 34  1  0
 11 35  1  0
 11 36  1  0
 10 33  1  1
  9 31  1  0
  9 32  1  0
  8 29  1  0
  8 30  1  0
  7 28  1  0
  4 27  1  0
  1 24  1  0
  1 25  1  0
  1 26  1  0
M  RAD  8   3   2   4   2   6   2  13   2  15   2  16   2  18   2  19   2
M  CHG  3   5  -1  14  -1  22  -1
M  RAD  3  20   2  21   2  23   2
M  END
>  <_TriposChargeType>  (1) 
USER_CHARGES

$$$$
