@<TRIPOS>MOLECULE
Cpptraj Generated mol2 file.
   42    44     1     0     0
SMALL
USER_CHARGES


@<TRIPOS>ATOM
      1 C1         33.0069   69.8400   37.7708 C.aa         1 L1      -0.190108
      2 S1         32.9311   68.0984   38.3448 S.ab         1 L1      -0.238631
      3 C2         33.6672   67.1211   37.0105 C.ad         1 L1       0.100442
      4 C3         34.8128   67.5588   36.3241 C.ae         1 L1      -0.074466
      5 N1         35.3119   66.7391   35.3559 N.af         1 L1      -0.245662
      6 C4         34.7158   65.5857   35.1966 C.ah         1 L1       0.320839
      7 N2         35.3301   64.8410   34.3059 N.ai         1 L1      -0.557028
      8 C5         35.5954   63.4096   34.5534 C.aj         1 L1       0.077348
      9 C6         37.0837   63.1854   34.2736 C.ak         1 L1      -0.049713
     10 C7         37.4458   61.6831   34.2766 C.an         1 L1       0.186740
     11 C8         38.9739   61.3257   34.1889 C.ao         1 L1      -0.279640
     12 N3         36.7433   61.1432   33.1224 N.ap         1 L1      -0.516643
     13 C9         36.1225   59.9359   33.0867 C.aq         1 L1       0.333629
     14 N4         36.1302   59.0851   34.0940 N.av         1 L1      -0.311580
     15 C10        35.3879   58.1391   33.5328 C.aw         1 L1       0.106919
     16 C11        35.0847   58.3503   32.2381 C.ax         1 L1       0.158044
     17 O1         35.6040   59.5935   31.8391 O.ay         1 L1      -0.256214
     18 C12        34.2007   57.5466   31.4942 C.az         1 L1      -0.217144
     19 C13        33.6591   56.4148   32.1100 C.bb         1 L1      -0.149544
     20 C14        34.0295   56.1175   33.4888 C.bc         1 L1      -0.149544
     21 C15        34.8508   57.0435   34.2065 C.bd         1 L1      -0.210337
     22 N5         33.7088   65.0831   35.8939 N.bf         1 L1      -0.245662
     23 C16        33.1439   65.8752   36.7839 C.bg         1 L1      -0.074466
     24 H1         32.6779   70.5208   38.5656 H.bh         1 L1       0.111153
     25 H2         34.0615   70.0082   37.5200 H.bj         1 L1       0.111153
     26 H3         32.3219   70.0745   36.9466 H.bk         1 L1       0.111153
     27 H4         35.2623   68.5401   36.4687 H.bl         1 L1       0.140728
     28 H5         36.1573   65.3141   33.9650 H.bm         1 L1       0.361042
     29 H6         35.4397   63.0615   35.5820 H.bn         1 L1       0.071726
     30 H7         34.9744   62.9061   33.8022 H.bo         1 L1       0.071726
     31 H8         37.3700   63.4967   33.2614 H.bp         1 L1       0.040290
     32 H9         37.6621   63.7468   35.0176 H.bq         1 L1       0.040290
     33 H10        37.0452   61.4057   35.2594 H.bs         1 L1       0.077851
     34 H11        39.3996   61.7657   35.0992 H.bt         1 L1       0.083290
     35 H12        39.1575   60.2629   34.3897 H.bu         1 L1       0.083290
     36 H13        39.4383   61.7232   33.2780 H.bv         1 L1       0.083290
     37 H14        36.3014   61.8441   32.5414 H.bw         1 L1       0.356395
     38 H15        33.9204   57.9209   30.5140 H.bx         1 L1       0.150353
     39 H16        33.0455   55.7542   31.5047 H.by         1 L1       0.146000
     40 H17        33.6252   55.2136   33.9350 H.bz         1 L1       0.146000
     41 H18        35.1319   56.8360   35.2347 H.cb         1 L1       0.155960
     42 H19        32.2713   65.4692   37.2936 H.ci         1 L1       0.140728
@<TRIPOS>BOND
    1    22    23 1
    2    20    21 1
    3    19    20 1
    4    18    19 1
    5    16    17 1
    6    16    18 1
    7    15    16 1
    8    15    21 1
    9    14    15 1
   10    13    14 1
   11    13    17 1
   12    12    13 1
   13    10    11 1
   14    10    12 1
   15     9    10 1
   16     8     9 1
   17     7     8 1
   18     6     7 1
   19     6    22 1
   20     5     6 1
   21     4     5 1
   22     3     4 1
   23     3    23 1
   24     2     3 1
   25     1     2 1
   26    23    42 1
   27    21    41 1
   28    20    40 1
   29    19    39 1
   30    18    38 1
   31    12    37 1
   32    11    34 1
   33    11    35 1
   34    11    36 1
   35    10    33 1
   36     9    31 1
   37     9    32 1
   38     8    29 1
   39     8    30 1
   40     7    28 1
   41     4    27 1
   42     1    24 1
   43     1    25 1
   44     1    26 1
@<TRIPOS>SUBSTRUCTURE
      1 L1                1 L.****               0 L.****  L.**** 
