Cpptraj Generated mol2 file.
     RDKit          3D

 53 56  0  0  0  0  0  0  0  0999 V2000
   35.7997   55.1091   27.8473 C   0  0  0  0  0  0  0  0  0  0  0  0
   36.0211   55.4673   29.1389 S   0  0  0  0  0  0  0  0  0  0  0  0
   36.7096   56.5410   29.5201 C   0  0  0  0  0  3  0  0  0  0  0  0
   37.4244   56.6112   30.7411 C   0  0  0  0  0  3  0  0  0  0  0  0
   38.0334   57.7047   31.2525 N   0  0  0  0  0  2  0  0  0  0  0  0
   38.0553   58.7801   30.3847 C   0  0  0  0  0  3  0  0  0  0  0  0
   38.8212   59.9135   30.6445 N   0  0  0  0  0  0  0  0  0  0  0  0
   39.7784   59.8032   31.7609 C   0  0  0  0  0  0  0  0  0  0  0  0
   40.7892   60.9412   31.9086 C   0  0  2  0  0  0  0  0  0  0  0  0
   41.8338   60.5889   32.9434 C   0  0  0  0  0  0  0  0  0  0  0  0
   40.2232   62.3306   32.2122 C   0  0  0  0  0  0  0  0  0  0  0  0
   39.3058   62.3778   33.4546 N   0  0  0  0  0  0  0  0  0  0  0  0
   39.1176   63.5111   34.2594 C   0  0  0  0  0  3  0  0  0  0  0  0
   38.1220   63.4250   35.1071 N   0  0  0  0  0  2  0  0  0  0  0  0
   38.2458   64.4485   35.9430 C   0  0  0  0  0  3  0  0  0  0  0  0
   39.3860   65.2214   35.7682 C   0  0  0  0  0  3  0  0  0  0  0  0
   40.3417   64.8234   34.4301 S   0  0  0  0  0  0  0  0  0  0  0  0
   39.5909   66.3544   36.5642 C   0  0  0  0  0  3  0  0  0  0  0  0
   38.5547   66.7797   37.4788 C   0  0  0  0  0  3  0  0  0  0  0  0
   37.4148   65.9661   37.6335 C   0  0  0  0  0  3  0  0  0  0  0  0
   37.2292   64.8112   36.8508 C   0  0  0  0  0  3  0  0  0  0  0  0
   38.6393   68.0544   38.3100 C   0  0  0  0  0  3  0  0  0  0  0  0
   38.5776   67.8814   39.4971 O   0  0  0  0  0  1  0  0  0  0  0  0
   38.9831   69.1877   37.5516 N   0  0  0  0  0  0  0  0  0  0  0  0
   38.0486   70.2411   38.0728 C   0  0  0  0  0  0  0  0  0  0  0  0
   39.1660   70.8800   38.8807 C   0  0  0  0  0  0  0  0  0  0  0  0
   39.0186   70.6790   40.2008 F   0  0  0  0  0  0  0  0  0  0  0  0
   39.5322   72.1693   38.6148 F   0  0  0  0  0  0  0  0  0  0  0  0
   40.1599   69.8008   38.2375 C   0  0  0  0  0  0  0  0  0  0  0  0
   37.3301   58.8703   29.1875 N   0  0  0  0  0  2  0  0  0  0  0  0
   36.6605   57.7603   28.8420 C   0  0  0  0  0  3  0  0  0  0  0  0
   35.4621   54.4145   27.0682 H   0  0  0  0  0  0  0  0  0  0  0  0
   35.4635   54.8646   28.8625 H   0  0  0  0  0  0  0  0  0  0  0  0
   35.4786   55.9427   27.2105 H   0  0  0  0  0  0  0  0  0  0  0  0
   37.4606   55.6656   31.2802 H   0  0  0  0  0  0  0  0  0  0  0  0
   38.8459   60.6861   29.9914 H   0  0  0  0  0  0  0  0  0  0  0  0
   39.2496   59.7021   32.7167 H   0  0  0  0  0  0  0  0  0  0  0  0
   40.3411   58.8636   31.8240 H   0  0  0  0  0  0  0  0  0  0  0  0
   41.1556   61.0517   30.8805 H   0  0  0  0  0  0  0  0  0  0  0  0
   42.6000   61.3071   33.2603 H   0  0  0  0  0  0  0  0  0  0  0  0
   41.2491   60.3798   33.8477 H   0  0  0  0  0  0  0  0  0  0  0  0
   42.4440   59.7179   32.6741 H   0  0  0  0  0  0  0  0  0  0  0  0
   41.0945   62.9822   32.3531 H   0  0  0  0  0  0  0  0  0  0  0  0
   39.6782   62.7234   31.3450 H   0  0  0  0  0  0  0  0  0  0  0  0
   38.6841   61.5901   33.5853 H   0  0  0  0  0  0  0  0  0  0  0  0
   40.4525   67.0073   36.4601 H   0  0  0  0  0  0  0  0  0  0  0  0
   36.6998   66.2396   38.4039 H   0  0  0  0  0  0  0  0  0  0  0  0
   36.3313   64.2400   37.0675 H   0  0  0  0  0  0  0  0  0  0  0  0
   37.7049   70.9451   37.3077 H   0  0  0  0  0  0  0  0  0  0  0  0
   37.1937   69.8569   38.6391 H   0  0  0  0  0  0  0  0  0  0  0  0
   40.9377   70.2974   37.6481 H   0  0  0  0  0  0  0  0  0  0  0  0
   40.7024   69.1781   38.9565 H   0  0  0  0  0  0  0  0  0  0  0  0
   36.0389   57.8952   27.9581 H   0  0  0  0  0  0  0  0  0  0  0  0
 30 31  1  0
 26 27  1  0
 26 28  1  0
 26 29  1  0
 25 26  1  0
 24 25  1  0
 24 29  1  0
 22 23  1  0
 22 24  1  0
 20 21  1  0
 19 20  1  0
 19 22  1  0
 18 19  1  0
 16 17  1  0
 16 18  1  0
 15 16  1  0
 15 21  1  0
 14 15  1  0
 13 14  1  0
 13 17  1  0
 12 13  1  0
 11 12  1  0
  9 10  1  0
  9 11  1  0
  8  9  1  0
  7  8  1  0
  6  7  1  0
  6 30  1  0
  5  6  1  0
  4  5  1  0
  3  4  1  0
  3 31  1  0
  2  3  1  0
  1  2  1  0
 31 53  1  0
 29 51  1  0
 29 52  1  0
 25 49  1  0
 25 50  1  0
 21 48  1  0
 20 47  1  0
 18 46  1  0
 12 45  1  0
 11 43  1  0
 11 44  1  0
 10 40  1  0
 10 41  1  0
 10 42  1  0
  9 39  1  6
  8 37  1  0
  8 38  1  0
  7 36  1  0
  4 35  1  0
  1 32  1  0
  1 33  1  0
  1 34  1  0
M  RAD  8   3   2   4   2   6   2  13   2  15   2  16   2  18   2  19   2
M  CHG  4   5  -1  14  -1  23  -1  30  -1
M  RAD  4  20   2  21   2  22   2  31   2
M  END
>  <_TriposChargeType>  (1) 
USER_CHARGES

$$$$
