@<TRIPOS>MOLECULE
Cpptraj Generated mol2 file.
   53    56     1     0     0
SMALL
USER_CHARGES


@<TRIPOS>ATOM
      1 C1         30.6325   54.1205   29.3507 aa         1 L1      -0.189748
      2 S1         32.4766   54.0571   29.3165 ab         1 L1      -0.238314
      3 C2         33.0550   55.5609   30.1648 ad         1 L1       0.100454
      4 C3         33.7827   55.4011   31.3520 ae         1 L1      -0.074175
      5 N1         34.2468   56.5180   31.9942 af         1 L1      -0.247134
      6 C4         34.1094   57.6833   31.4695 ah         1 L1       0.320915
      7 N2         34.7540   58.7100   32.0749 ai         1 L1      -0.552546
      8 C5         35.7112   58.5997   33.1913 aj         1 L1       0.053049
      9 C6         36.7220   59.7377   33.3390 ak         1 L1       0.134606
     10 C7         37.7666   59.3854   34.3738 an         1 L1      -0.297065
     11 C8         36.1560   61.1271   33.6426 ao         1 L1       0.055053
     12 N3         35.2386   61.1743   34.8850 ap         1 L1      -0.483763
     13 C9         35.0504   62.3076   35.6898 aq         1 L1       0.223940
     14 N4         34.0548   62.2215   36.5375 av         1 L1      -0.262664
     15 C10        34.1786   63.2450   37.3734 aw         1 L1       0.125608
     16 C11        35.3188   64.0179   37.1986 ax         1 L1       0.076441
     17 S2         36.2745   63.6199   35.8605 ay         1 L1      -0.115542
     18 C12        35.5237   65.1509   37.9946 az         1 L1      -0.245043
     19 C13        34.4875   65.5762   38.9092 bb         1 L1       0.009360
     20 C14        33.3476   64.7626   39.0639 bc         1 L1      -0.201937
     21 C15        33.1620   63.6077   38.2812 bd         1 L1      -0.208026
     22 C16        34.5721   66.8509   39.7404 bf         1 L1       0.645892
     23 O1         34.5104   66.6779   40.9275 bg         1 L1      -0.596376
     24 N5         34.9159   67.9842   38.9820 bh         1 L1      -0.312207
     25 C17        33.9814   69.0376   39.5032 bj         1 L1      -0.054698
     26 C18        35.0988   69.6765   40.3111 bk         1 L1       0.257452
     27 F1         34.9514   69.4755   41.6312 bl         1 L1      -0.182678
     28 F2         35.4650   70.9658   40.0452 bm         1 L1      -0.182678
     29 C19        36.0927   68.5973   39.6679 bn         1 L1      -0.054698
     30 N6         33.5323   57.9803   30.3110 bo         1 L1      -0.247134
     31 C20        33.0371   56.8933   29.6186 bp         1 L1      -0.074175
     32 H1         30.2949   53.4259   28.5716 bq         1 L1       0.111579
     33 H2         30.2963   53.8760   30.3659 bs         1 L1       0.111579
     34 H3         30.2765   55.0864   28.9715 bt         1 L1       0.111579
     35 H4         34.0090   54.4511   31.8340 bu         1 L1       0.140987
     36 H5         34.8579   59.5851   31.5773 bv         1 L1       0.356917
     37 H6         35.1824   58.4986   34.1471 bw         1 L1       0.066849
     38 H7         36.2739   57.6601   33.2544 bx         1 L1       0.066849
     39 H8         37.0884   59.8482   32.3109 by         1 L1       0.012338
     40 H9         38.5328   60.1036   34.6907 bz         1 L1       0.082467
     41 H10        37.1819   59.1763   35.2781 cb         1 L1       0.082467
     42 H11        38.3768   58.5144   34.1045 ci         1 L1       0.082467
     43 H12        37.0273   61.7787   33.7835 cj         1 L1       0.069489
     44 H13        35.6110   61.5199   32.7754 ck         1 L1       0.069489
     45 H14        34.6169   60.3866   35.0157 cm         1 L1       0.365096
     46 H15        36.3853   65.8038   37.8905 cn         1 L1       0.172366
     47 H16        32.6326   65.0361   39.8343 ct         1 L1       0.146465
     48 H17        32.2641   63.0365   38.4979 cw         1 L1       0.162096
     49 H18        33.6377   69.7416   38.7381 da         1 L1       0.116441
     50 H19        33.1265   68.6534   40.0695 db         1 L1       0.116441
     51 H20        36.8705   69.0939   39.0785 dc         1 L1       0.116441
     52 H21        36.6352   67.9746   40.3869 dd         1 L1       0.116441
     53 H22        32.7529   57.1227   28.5927 de         1 L1       0.140987
@<TRIPOS>BOND
    1    30    31 1
    2    26    27 1
    3    26    28 1
    4    26    29 1
    5    25    26 1
    6    24    25 1
    7    24    29 1
    8    22    23 1
    9    22    24 1
   10    20    21 1
   11    19    20 1
   12    19    22 1
   13    18    19 1
   14    16    17 1
   15    16    18 1
   16    15    16 1
   17    15    21 1
   18    14    15 1
   19    13    14 1
   20    13    17 1
   21    12    13 1
   22    11    12 1
   23     9    10 1
   24     9    11 1
   25     8     9 1
   26     7     8 1
   27     6     7 1
   28     6    30 1
   29     5     6 1
   30     4     5 1
   31     3     4 1
   32     3    31 1
   33     2     3 1
   34     1     2 1
   35    31    53 1
   36    29    51 1
   37    29    52 1
   38    25    49 1
   39    25    50 1
   40    21    48 1
   41    20    47 1
   42    18    46 1
   43    12    45 1
   44    11    43 1
   45    11    44 1
   46    10    40 1
   47    10    41 1
   48    10    42 1
   49     9    39 1
   50     8    37 1
   51     8    38 1
   52     7    36 1
   53     4    35 1
   54     1    32 1
   55     1    33 1
   56     1    34 1
@<TRIPOS>SUBSTRUCTURE
      1 L1                1 ****               0 ****  **** 
