Cpptraj Generated mol2 file.
     RDKit          3D

 44 46  0  0  0  0  0  0  0  0999 V2000
   35.7997   55.1091   27.8473 C   0  0  0  0  0  0  0  0  0  0  0  0
   36.0211   55.4673   29.1389 S   0  0  0  0  0  0  0  0  0  0  0  0
   36.7096   56.5410   29.5201 C   0  0  0  0  0  3  0  0  0  0  0  0
   37.4244   56.6112   30.7411 C   0  0  0  0  0  3  0  0  0  0  0  0
   38.0334   57.7047   31.2525 N   0  0  0  0  0  2  0  0  0  0  0  0
   38.0553   58.7801   30.3847 C   0  0  0  0  0  3  0  0  0  0  0  0
   38.8212   59.9135   30.6445 N   0  0  0  0  0  0  0  0  0  0  0  0
   38.7420   60.5764   31.9485 C   0  0  0  0  0  0  0  0  0  0  0  0
   39.9724   61.4797   32.2316 C   0  0  1  0  0  0  0  0  0  0  0  0
   40.0138   62.6634   31.2719 C   0  0  0  0  0  0  0  0  0  0  0  0
   40.0502   61.8841   33.7100 C   0  0  0  0  0  0  0  0  0  0  0  0
   38.8359   62.5031   34.2795 N   0  0  0  0  0  0  0  0  0  0  0  0
   38.6372   63.8316   34.5817 C   0  0  0  0  0  3  0  0  0  0  0  0
   37.3813   64.2179   34.6395 N   0  0  0  0  0  2  0  0  0  0  0  0
   37.2094   65.5185   34.8863 C   0  0  0  0  0  3  0  0  0  0  0  0
   38.2545   66.3860   35.2266 C   0  0  0  0  0  3  0  0  0  0  0  0
   38.0865   67.8026   35.5170 C   0  0  0  0  0  3  0  0  0  0  0  0
   39.1935   68.6416   35.7168 C   0  0  0  0  0  3  0  0  0  0  0  0
   40.4729   68.0749   35.6433 C   0  0  0  0  0  3  0  0  0  0  0  0
   40.6451   66.6761   35.3905 C   0  0  0  0  0  3  0  0  0  0  0  0
   39.5269   65.8490   35.1013 C   0  0  0  0  0  3  0  0  0  0  0  0
   39.7301   64.5627   34.9227 N   0  0  0  0  0  2  0  0  0  0  0  0
   37.3301   58.8703   29.1875 N   0  0  0  0  0  2  0  0  0  0  0  0
   36.6605   57.7603   28.8420 C   0  0  0  0  0  3  0  0  0  0  0  0
   35.6015   56.1862   27.7830 H   0  0  0  0  0  0  0  0  0  0  0  0
   35.4786   55.9427   27.2105 H   0  0  0  0  0  0  0  0  0  0  0  0
   34.9366   54.5514   27.4632 H   0  0  0  0  0  0  0  0  0  0  0  0
   37.4606   55.6656   31.2802 H   0  0  0  0  0  0  0  0  0  0  0  0
   38.8459   60.6861   29.9914 H   0  0  0  0  0  0  0  0  0  0  0  0
   37.8453   61.2081   31.9349 H   0  0  0  0  0  0  0  0  0  0  0  0
   38.6180   59.8591   32.7692 H   0  0  0  0  0  0  0  0  0  0  0  0
   40.8376   60.9017   31.8841 H   0  0  0  0  0  0  0  0  0  0  0  0
   39.3152   63.4314   31.6260 H   0  0  0  0  0  0  0  0  0  0  0  0
   40.9952   63.1491   31.2047 H   0  0  0  0  0  0  0  0  0  0  0  0
   39.6939   62.3440   30.2723 H   0  0  0  0  0  0  0  0  0  0  0  0
   40.4069   61.0435   34.3179 H   0  0  0  0  0  0  0  0  0  0  0  0
   40.8588   62.6243   33.7524 H   0  0  0  0  0  0  0  0  0  0  0  0
   37.9573   62.0268   34.1204 H   0  0  0  0  0  0  0  0  0  0  0  0
   36.2273   65.9451   34.6876 H   0  0  0  0  0  0  0  0  0  0  0  0
   37.1227   68.2963   35.5983 H   0  0  0  0  0  0  0  0  0  0  0  0
   39.0615   69.7011   35.9151 H   0  0  0  0  0  0  0  0  0  0  0  0
   41.3170   68.7520   35.7350 H   0  0  0  0  0  0  0  0  0  0  0  0
   41.6433   66.2879   35.2111 H   0  0  0  0  0  0  0  0  0  0  0  0
   36.0389   57.8952   27.9581 H   0  0  0  0  0  0  0  0  0  0  0  0
 23 24  1  0
 21 22  1  0
 20 21  1  0
 19 20  1  0
 18 19  1  0
 17 18  1  0
 16 17  1  0
 16 21  1  0
 15 16  1  0
 14 15  1  0
 13 14  1  0
 13 22  1  0
 12 13  1  0
 11 12  1  0
  9 10  1  0
  9 11  1  0
  8  9  1  0
  7  8  1  0
  6  7  1  0
  6 23  1  0
  5  6  1  0
  4  5  1  0
  3  4  1  0
  3 24  1  0
  2  3  1  0
  1  2  1  0
 24 44  1  0
 20 43  1  0
 19 42  1  0
 18 41  1  0
 17 40  1  0
 15 39  1  0
 12 38  1  0
 11 36  1  0
 11 37  1  0
 10 33  1  0
 10 34  1  0
 10 35  1  0
  9 32  1  6
  8 30  1  0
  8 31  1  0
  7 29  1  0
  4 28  1  0
  1 25  1  0
  1 26  1  0
  1 27  1  0
M  RAD  8   3   2   4   2   6   2  13   2  15   2  16   2  17   2  18   2
M  CHG  4   5  -1  14  -1  22  -1  23  -1
M  RAD  4  19   2  20   2  21   2  24   2
M  END
>  <_TriposChargeType>  (1) 
USER_CHARGES

$$$$
