@<TRIPOS>MOLECULE
Cpptraj Generated mol2 file.
   44    46     1     0     0
SMALL
USER_CHARGES


@<TRIPOS>ATOM
      1 C1         38.0522   59.6417   29.3842 aa         1 L1      -0.189556
      2 S1         38.4864   59.0834   31.0794 ab         1 L1      -0.240005
      3 C2         39.6036   60.4075   31.6609 ad         1 L1       0.100022
      4 C3         39.6784   60.7699   32.9596 ae         1 L1      -0.074135
      5 N1         40.3333   61.8766   33.4054 af         1 L1      -0.247692
      6 C4         40.9292   62.6282   32.4030 ah         1 L1       0.323402
      7 N2         41.5849   63.8020   32.7214 ai         1 L1      -0.552591
      8 C5         41.5057   64.4649   34.0254 aj         1 L1       0.052076
      9 C6         42.7361   65.3682   34.3085 ak         1 L1       0.135252
     10 C7         42.7775   66.5519   33.3488 an         1 L1      -0.292324
     11 C8         42.8139   65.7726   35.7869 ao         1 L1       0.052076
     12 N3         41.5996   66.3916   36.3564 ap         1 L1      -0.552591
     13 C9         41.4009   67.7201   36.6586 aq         1 L1       0.323402
     14 N4         40.1450   68.1064   36.7164 av         1 L1      -0.247692
     15 C10        39.9731   69.4070   36.9632 aw         1 L1      -0.062332
     16 C11        41.0182   70.2745   37.3035 ax         1 L1       0.075003
     17 C12        40.8502   71.6911   37.5939 ay         1 L1      -0.194077
     18 C13        41.9572   72.5301   37.7937 az         1 L1      -0.144186
     19 C14        43.2366   71.9634   37.7202 bb         1 L1      -0.133318
     20 C15        43.4088   70.5646   37.4674 bc         1 L1      -0.182638
     21 C16        42.2906   69.7375   37.1782 bd         1 L1       0.089274
     22 N5         42.4938   68.4512   36.9996 bf         1 L1      -0.270171
     23 N6         41.0369   62.2343   31.1117 bg         1 L1      -0.247692
     24 C17        40.2871   61.1951   30.7317 bh         1 L1      -0.074135
     25 H1         37.8540   60.7188   29.3199 bj         1 L1       0.110976
     26 H2         38.9276   59.3690   28.7820 bk         1 L1       0.110976
     27 H3         37.1891   59.0840   29.0001 bl         1 L1       0.110976
     28 H4         39.2697   60.0478   33.6650 bm         1 L1       0.140390
     29 H5         41.8652   64.3915   31.9481 bn         1 L1       0.355968
     30 H6         40.6090   65.0966   34.0118 bo         1 L1       0.067646
     31 H7         41.3817   63.7476   34.8461 bp         1 L1       0.067646
     32 H8         43.6013   64.7902   33.9610 bq         1 L1       0.005745
     33 H9         42.0789   67.3199   33.7029 bs         1 L1       0.079488
     34 H10        43.7589   67.0376   33.2816 bt         1 L1       0.079488
     35 H11        42.4576   66.2325   32.3492 bu         1 L1       0.079488
     36 H12        43.1706   64.9320   36.3948 bv         1 L1       0.067646
     37 H13        43.6225   66.5128   35.8293 bw         1 L1       0.067646
     38 H14        40.7210   65.9153   36.1973 bx         1 L1       0.355968
     39 H15        38.9910   69.8336   36.7645 by         1 L1       0.133610
     40 H16        39.8864   72.1848   37.6752 bz         1 L1       0.140315
     41 H17        41.8252   73.5896   37.9920 cb         1 L1       0.141201
     42 H18        44.0807   72.6405   37.8119 ci         1 L1       0.143900
     43 H19        44.4070   70.1764   37.2880 cj         1 L1       0.155165
     44 H20        40.3584   60.9682   29.6689 ck         1 L1       0.140390
@<TRIPOS>BOND
    1    23    24 1
    2    21    22 1
    3    20    21 1
    4    19    20 1
    5    18    19 1
    6    17    18 1
    7    16    17 1
    8    16    21 1
    9    15    16 1
   10    14    15 1
   11    13    14 1
   12    13    22 1
   13    12    13 1
   14    11    12 1
   15     9    10 1
   16     9    11 1
   17     8     9 1
   18     7     8 1
   19     6     7 1
   20     6    23 1
   21     5     6 1
   22     4     5 1
   23     3     4 1
   24     3    24 1
   25     2     3 1
   26     1     2 1
   27    24    44 1
   28    20    43 1
   29    19    42 1
   30    18    41 1
   31    17    40 1
   32    15    39 1
   33    12    38 1
   34    11    36 1
   35    11    37 1
   36    10    33 1
   37    10    34 1
   38    10    35 1
   39     9    32 1
   40     8    30 1
   41     8    31 1
   42     7    29 1
   43     4    28 1
   44     1    25 1
   45     1    26 1
   46     1    27 1
@<TRIPOS>SUBSTRUCTURE
      1 L1                1 ****               0 ****  **** 
