Cpptraj Generated mol2 file.
     RDKit          3D

 53 55  0  0  0  0  0  0  0  0999 V2000
   35.7997   55.1091   27.8473 C   0  0  0  0  0  0  0  0  0  0  0  0
   36.0211   55.4673   29.1389 S   0  0  0  0  0  0  0  0  0  0  0  0
   36.7096   56.5410   29.5201 C   0  0  0  0  0  3  0  0  0  0  0  0
   36.6605   57.7603   28.8420 C   0  0  0  0  0  3  0  0  0  0  0  0
   37.3301   58.8703   29.1875 N   0  0  0  0  0  2  0  0  0  0  0  0
   38.0553   58.7801   30.3847 C   0  0  0  0  0  3  0  0  0  0  0  0
   38.8212   59.9135   30.6445 N   0  0  0  0  0  0  0  0  0  0  0  0
   38.9868   60.2495   32.0787 C   0  0  0  0  0  0  0  0  0  0  0  0
   40.1747   61.1885   32.4350 C   0  0  2  0  0  0  0  0  0  0  0  0
   41.5006   60.4102   32.2223 C   0  0  0  0  0  0  0  0  0  0  0  0
   40.0040   61.7588   33.8705 C   0  0  0  0  0  0  0  0  0  0  0  0
   38.7150   62.5108   33.9359 N   0  0  0  0  0  0  0  0  0  0  0  0
   38.7892   63.7843   34.3990 C   0  0  0  0  0  3  0  0  0  0  0  0
   37.7427   64.3370   35.0215 N   0  0  0  0  0  2  0  0  0  0  0  0
   38.1887   65.5075   35.5320 C   0  0  0  0  0  3  0  0  0  0  0  0
   39.3080   66.0727   35.0423 C   0  0  0  0  0  3  0  0  0  0  0  0
   40.1625   64.9534   33.9900 S   0  0  0  0  0  0  0  0  0  0  0  0
   39.7975   67.2906   35.4844 C   0  0  0  0  0  3  0  0  0  0  0  0
   38.9558   68.0264   36.3401 C   0  0  0  0  0  3  0  0  0  0  0  0
   37.7211   67.4743   36.7864 C   0  0  0  0  0  3  0  0  0  0  0  0
   37.2766   66.2169   36.3499 C   0  0  0  0  0  3  0  0  0  0  0  0
   39.3592   69.3623   36.8441 C   0  0  0  0  0  3  0  0  0  0  0  0
   40.4865   69.7269   36.9996 O   0  0  0  0  0  1  0  0  0  0  0  0
   38.3477   70.1417   37.3948 N   0  0  0  0  0  0  0  0  0  0  0  0
   38.4407   71.5600   37.8921 C   0  0  0  0  0  0  0  0  0  0  0  0
   39.0712   71.6596   39.2807 C   0  0  0  0  0  0  0  0  0  0  0  0
   38.4209   70.9566   40.2474 O   0  0  0  0  0  0  0  0  0  0  0  0
   38.0334   57.7047   31.2525 N   0  0  0  0  0  2  0  0  0  0  0  0
   37.4244   56.6112   30.7411 C   0  0  0  0  0  3  0  0  0  0  0  0
   35.0679   54.3623   27.5155 H   0  0  0  0  0  0  0  0  0  0  0  0
   35.5442   56.0149   27.2836 H   0  0  0  0  0  0  0  0  0  0  0  0
   35.4786   55.9427   27.2105 H   0  0  0  0  0  0  0  0  0  0  0  0
   36.0389   57.8952   27.9581 H   0  0  0  0  0  0  0  0  0  0  0  0
   38.8459   60.6861   29.9914 H   0  0  0  0  0  0  0  0  0  0  0  0
   38.0472   60.7071   32.4119 H   0  0  0  0  0  0  0  0  0  0  0  0
   39.2384   59.3546   32.6612 H   0  0  0  0  0  0  0  0  0  0  0  0
   40.1684   62.0417   31.7455 H   0  0  0  0  0  0  0  0  0  0  0  0
   41.7318   60.2390   31.1637 H   0  0  0  0  0  0  0  0  0  0  0  0
   42.4149   60.9754   32.4415 H   0  0  0  0  0  0  0  0  0  0  0  0
   41.4408   59.3952   32.6340 H   0  0  0  0  0  0  0  0  0  0  0  0
   39.8693   60.8933   34.5309 H   0  0  0  0  0  0  0  0  0  0  0  0
   40.8058   62.3783   34.2910 H   0  0  0  0  0  0  0  0  0  0  0  0
   37.8560   61.9760   33.9515 H   0  0  0  0  0  0  0  0  0  0  0  0
   40.7323   67.6651   35.0779 H   0  0  0  0  0  0  0  0  0  0  0  0
   37.0333   68.0925   37.3557 H   0  0  0  0  0  0  0  0  0  0  0  0
   36.3637   65.8085   36.7732 H   0  0  0  0  0  0  0  0  0  0  0  0
   37.4164   69.7556   37.2962 H   0  0  0  0  0  0  0  0  0  0  0  0
   39.1353   72.0521   37.2001 H   0  0  0  0  0  0  0  0  0  0  0  0
   37.4277   71.9654   37.7786 H   0  0  0  0  0  0  0  0  0  0  0  0
   40.0916   71.2890   39.1228 H   0  0  0  0  0  0  0  0  0  0  0  0
   39.0965   72.7385   39.4779 H   0  0  0  0  0  0  0  0  0  0  0  0
   37.5080   71.2928   40.2636 H   0  0  0  0  0  0  0  0  0  0  0  0
   37.4606   55.6656   31.2802 H   0  0  0  0  0  0  0  0  0  0  0  0
 28 29  1  0
 26 27  1  0
 25 26  1  0
 24 25  1  0
 22 23  1  0
 22 24  1  0
 20 21  1  0
 19 20  1  0
 19 22  1  0
 18 19  1  0
 16 17  1  0
 16 18  1  0
 15 16  1  0
 15 21  1  0
 14 15  1  0
 13 14  1  0
 13 17  1  0
 12 13  1  0
 11 12  1  0
  9 10  1  0
  9 11  1  0
  8  9  1  0
  7  8  1  0
  6  7  1  0
  6 28  1  0
  5  6  1  0
  4  5  1  0
  3  4  1  0
  3 29  1  0
  2  3  1  0
  1  2  1  0
 29 53  1  0
 27 52  1  0
 26 50  1  0
 26 51  1  0
 25 48  1  0
 25 49  1  0
 24 47  1  0
 21 46  1  0
 20 45  1  0
 18 44  1  0
 12 43  1  0
 11 41  1  0
 11 42  1  0
 10 38  1  0
 10 39  1  0
 10 40  1  0
  9 37  1  6
  8 35  1  0
  8 36  1  0
  7 34  1  0
  4 33  1  0
  1 30  1  0
  1 31  1  0
  1 32  1  0
M  RAD  8   3   2   4   2   6   2  13   2  15   2  16   2  18   2  19   2
M  CHG  4   5  -1  14  -1  23  -1  28  -1
M  RAD  4  20   2  21   2  22   2  29   2
M  END
>  <_TriposChargeType>  (1) 
USER_CHARGES

$$$$
