@<TRIPOS>MOLECULE
Cpptraj Generated mol2 file.
   53    55     1     0     0
SMALL
USER_CHARGES


@<TRIPOS>ATOM
      1 C1         31.0804   54.9876   25.9443 aa         1 L1      -0.189845
      2 S1         30.5842   55.3502   27.7268 ab         1 L1      -0.238586
      3 C2         31.5893   56.8275   28.1402 ad         1 L1       0.100576
      4 C3         32.0296   57.8009   27.1965 ae         1 L1      -0.073607
      5 N1         32.8553   58.8960   27.4911 af         1 L1      -0.247634
      6 C4         33.2369   58.8472   28.8259 ah         1 L1       0.320725
      7 N2         34.1197   59.8922   29.1858 ai         1 L1      -0.553763
      8 C5         34.2853   60.2282   30.6200 aj         1 L1       0.053476
      9 C6         35.4732   61.1672   30.9763 ak         1 L1       0.133598
     10 C7         36.7991   60.3889   30.7636 an         1 L1      -0.298059
     11 C8         35.3025   61.7375   32.4118 ao         1 L1       0.054283
     12 N3         34.0135   62.4895   32.4772 ap         1 L1      -0.484720
     13 C9         34.0877   63.7630   32.9403 aq         1 L1       0.225148
     14 N4         33.0412   64.3157   33.5628 av         1 L1      -0.262108
     15 C10        33.4872   65.4862   34.0733 aw         1 L1       0.124597
     16 C11        34.6065   66.0514   33.5836 ax         1 L1       0.077406
     17 S2         35.4610   64.9321   32.5313 ay         1 L1      -0.128324
     18 C12        35.0960   67.2693   34.0257 az         1 L1      -0.245051
     19 C13        34.2543   68.0051   34.8814 bb         1 L1       0.007367
     20 C14        33.0196   67.4530   35.3277 bc         1 L1      -0.202026
     21 C15        32.5751   66.1956   34.8912 bd         1 L1      -0.208166
     22 C16        34.6577   69.3410   35.3854 bf         1 L1       0.673423
     23 O1         35.7850   69.7056   35.5409 bg         1 L1      -0.621290
     24 N5         33.6462   70.1204   35.9361 bh         1 L1      -0.529259
     25 C17        33.7392   71.5387   36.4334 bj         1 L1       0.024358
     26 C18        34.3697   71.6383   37.8220 bk         1 L1       0.232675
     27 O2         33.7194   70.9353   38.7887 bl         1 L1      -0.644355
     28 N6         32.8915   57.9965   29.7729 bm         1 L1      -0.247634
     29 C19        32.0426   57.0059   29.4171 bn         1 L1      -0.073607
     30 H1         30.3486   54.2408   25.6125 bo         1 L1       0.111265
     31 H2         30.8249   55.8934   25.3806 bp         1 L1       0.111265
     32 H3         32.1149   54.6878   25.7362 bq         1 L1       0.111265
     33 H4         31.8168   57.5728   26.1532 bs         1 L1       0.141373
     34 H5         33.9021   60.6821   28.5919 bt         1 L1       0.358858
     35 H6         33.3457   60.6858   30.9532 bu         1 L1       0.065529
     36 H7         34.5369   59.3333   31.2025 bv         1 L1       0.065529
     37 H8         35.4669   62.0204   30.2868 bw         1 L1       0.017296
     38 H9         37.0303   60.2177   29.7050 bx         1 L1       0.080640
     39 H10        37.7134   60.9541   30.9828 by         1 L1       0.080640
     40 H11        36.7393   59.3739   31.1753 bz         1 L1       0.080640
     41 H12        35.1678   60.8720   33.0722 cb         1 L1       0.069084
     42 H13        36.1043   62.3570   32.8323 ci         1 L1       0.069084
     43 H14        33.1545   61.9547   32.4928 cj         1 L1       0.365087
     44 H15        36.0308   67.6438   33.6192 ck         1 L1       0.170975
     45 H16        32.3318   68.0712   35.8970 cm         1 L1       0.144559
     46 H17        31.6622   65.7872   35.3145 cn         1 L1       0.159073
     47 H18        32.7149   69.7343   35.8375 ct         1 L1       0.302249
     48 H19        34.4338   72.0308   35.7414 cw         1 L1       0.065490
     49 H20        32.7262   71.9441   36.3199 da         1 L1       0.065490
     50 H21        35.3901   71.2677   37.6641 db         1 L1       0.018696
     51 H22        34.3950   72.7172   38.0192 dc         1 L1       0.018696
     52 H23        32.8065   71.2715   38.8049 dd         1 L1       0.406243
     53 H24        31.6293   56.5057   30.2918 de         1 L1       0.141373
@<TRIPOS>BOND
    1    28    29 1
    2    26    27 1
    3    25    26 1
    4    24    25 1
    5    22    23 1
    6    22    24 1
    7    20    21 1
    8    19    20 1
    9    19    22 1
   10    18    19 1
   11    16    17 1
   12    16    18 1
   13    15    16 1
   14    15    21 1
   15    14    15 1
   16    13    14 1
   17    13    17 1
   18    12    13 1
   19    11    12 1
   20     9    10 1
   21     9    11 1
   22     8     9 1
   23     7     8 1
   24     6     7 1
   25     6    28 1
   26     5     6 1
   27     4     5 1
   28     3     4 1
   29     3    29 1
   30     2     3 1
   31     1     2 1
   32    29    53 1
   33    27    52 1
   34    26    50 1
   35    26    51 1
   36    25    48 1
   37    25    49 1
   38    24    47 1
   39    21    46 1
   40    20    45 1
   41    18    44 1
   42    12    43 1
   43    11    41 1
   44    11    42 1
   45    10    38 1
   46    10    39 1
   47    10    40 1
   48     9    37 1
   49     8    35 1
   50     8    36 1
   51     7    34 1
   52     4    33 1
   53     1    30 1
   54     1    31 1
   55     1    32 1
@<TRIPOS>SUBSTRUCTURE
      1 L1                1 ****               0 ****  **** 
