
     RDKit          3D

 56 59  0  0  0  0  0  0  0  0999 V2000
  -24.9169   26.8844   -6.6600 C   0  0  0  0  0  0  0  0  0  0  0  0
  -25.2912   28.1764   -5.4345 S   0  0  0  0  0  0  0  0  0  0  0  0
  -25.7073   29.4018   -6.6762 C   0  0  0  0  0  0  0  0  0  0  0  0
  -24.7960   30.3973   -7.0312 C   0  0  0  0  0  0  0  0  0  0  0  0
  -25.1290   31.3130   -7.9774 N   0  0  0  0  0  0  0  0  0  0  0  0
  -26.3432   31.2780   -8.5928 C   0  0  0  0  0  0  0  0  0  0  0  0
  -26.6813   32.2460   -9.5896 N   0  0  0  0  0  0  0  0  0  0  0  0
  -25.6679   33.1121  -10.1929 C   0  0  0  0  0  0  0  0  0  0  0  0
  -26.2690   34.1379  -11.1841 C   0  0  0  0  0  0  0  0  0  0  0  0
  -27.1909   33.4674  -12.2259 C   0  0  0  0  0  0  0  0  0  0  0  0
  -25.1201   34.8349  -11.9437 C   0  0  0  0  0  0  0  0  0  0  0  0
  -24.5316   35.9082  -11.1531 N   0  0  0  0  0  0  0  0  0  0  0  0
  -25.2381   37.1270  -10.9022 C   0  0  0  0  0  0  0  0  0  0  0  0
  -26.3379   37.5124  -11.5960 N   0  0  0  0  0  0  0  0  0  0  0  0
  -26.8010   38.7021  -11.1359 C   0  0  0  0  0  0  0  0  0  0  0  0
  -26.0788   39.2539  -10.0912 C   0  0  0  0  0  0  0  0  0  0  0  0
  -24.8024   38.2353   -9.6994 S   0  0  0  0  0  0  0  0  0  0  0  0
  -26.4302   40.4674   -9.5068 C   0  0  0  0  0  0  0  0  0  0  0  0
  -27.5586   41.1556  -10.0062 C   0  0  0  0  0  0  0  0  0  0  0  0
  -28.3024   40.5845  -11.0702 C   0  0  0  0  0  0  0  0  0  0  0  0
  -27.9225   39.3575  -11.6395 C   0  0  0  0  0  0  0  0  0  0  0  0
  -27.9816   42.4484   -9.4154 C   0  0  0  0  0  0  0  0  0  0  0  0
  -27.1054   43.2945   -9.0882 O   0  0  0  0  0  0  0  0  0  0  0  0
  -29.3701   42.7270   -9.1697 N   0  0  0  0  0  0  0  0  0  0  0  0
  -29.8988   44.0477   -8.9839 C   0  0  0  0  0  0  0  0  0  0  0  0
  -31.2329   44.3812   -8.9339 C   0  0  0  0  0  0  0  0  0  0  0  0
  -31.3104   45.7188   -8.8060 N   0  0  0  0  0  0  0  0  0  0  0  0
  -32.5367   46.4887   -8.6509 C   0  0  0  0  0  0  0  0  0  0  0  0
  -30.0958   46.2476   -8.7664 N   0  0  0  0  0  0  0  0  0  0  0  0
  -29.2057   45.2418   -8.8859 C   0  0  0  0  0  0  0  0  0  0  0  0
  -27.2394   30.3098   -8.2606 N   0  0  0  0  0  0  0  0  0  0  0  0
  -26.9456   29.3755   -7.3196 C   0  0  0  0  0  0  0  0  0  0  0  0
  -24.3482   26.0856   -6.1838 H   0  0  0  0  0  0  0  0  0  0  0  0
  -25.8478   26.4803   -7.0578 H   0  0  0  0  0  0  0  0  0  0  0  0
  -24.3304   27.3133   -7.4725 H   0  0  0  0  0  0  0  0  0  0  0  0
  -23.8131   30.4603   -6.5643 H   0  0  0  0  0  0  0  0  0  0  0  0
  -27.6484   32.3190   -9.8713 H   0  0  0  0  0  0  0  0  0  0  0  0
  -25.2487   33.6780   -9.3609 H   0  0  0  0  0  0  0  0  0  0  0  0
  -25.0321   32.4418  -10.7715 H   0  0  0  0  0  0  0  0  0  0  0  0
  -26.8590   34.8498  -10.6069 H   0  0  0  0  0  0  0  0  0  0  0  0
  -27.9685   32.9019  -11.7124 H   0  0  0  0  0  0  0  0  0  0  0  0
  -27.6509   34.2333  -12.8503 H   0  0  0  0  0  0  0  0  0  0  0  0
  -26.6040   32.7938  -12.8503 H   0  0  0  0  0  0  0  0  0  0  0  0
  -24.3233   34.1024  -12.0723 H   0  0  0  0  0  0  0  0  0  0  0  0
  -25.5556   35.3249  -12.8145 H   0  0  0  0  0  0  0  0  0  0  0  0
  -23.6043   35.8040  -10.7666 H   0  0  0  0  0  0  0  0  0  0  0  0
  -25.8392   40.8669   -8.6827 H   0  0  0  0  0  0  0  0  0  0  0  0
  -29.1823   41.0980  -11.4576 H   0  0  0  0  0  0  0  0  0  0  0  0
  -28.4901   38.9199  -12.4607 H   0  0  0  0  0  0  0  0  0  0  0  0
  -30.0123   41.9487   -9.1251 H   0  0  0  0  0  0  0  0  0  0  0  0
  -32.0834   43.7016   -8.9867 H   0  0  0  0  0  0  0  0  0  0  0  0
  -32.5794   47.2625   -9.4175 H   0  0  0  0  0  0  0  0  0  0  0  0
  -33.3966   45.8271   -8.7544 H   0  0  0  0  0  0  0  0  0  0  0  0
  -32.5520   46.9530   -7.6649 H   0  0  0  0  0  0  0  0  0  0  0  0
  -28.1234   45.3705   -8.9006 H   0  0  0  0  0  0  0  0  0  0  0  0
  -27.6917   28.6164   -7.0844 H   0  0  0  0  0  0  0  0  0  0  0  0
  1  2  1  0
  2  3  1  0
  3  4  2  0
  4  5  1  0
  5  6  2  0
  6  7  1  0
  7  8  1  0
  9  8  1  0
  9 10  1  0
  9 11  1  0
 11 12  1  0
 12 13  1  0
 13 14  2  0
 14 15  1  0
 15 16  2  0
 16 17  1  0
 13 17  1  0
 16 18  1  0
 18 19  2  0
 19 20  1  0
 20 21  2  0
 15 21  1  0
 19 22  1  0
 22 23  2  0
 22 24  1  0
 24 25  1  0
 25 26  2  0
 26 27  1  0
 27 28  1  0
 27 29  1  0
 29 30  2  0
 25 30  1  0
  6 31  1  0
 31 32  2  0
  3 32  1  0
  1 33  1  0
  1 34  1  0
  1 35  1  0
  4 36  1  0
  7 37  1  0
  8 38  1  0
  8 39  1  0
  9 40  1  0
 10 41  1  0
 10 42  1  0
 10 43  1  0
 11 44  1  0
 11 45  1  0
 12 46  1  0
 18 47  1  0
 20 48  1  0
 21 49  1  0
 24 50  1  0
 26 51  1  0
 28 52  1  0
 28 53  1  0
 28 54  1  0
 30 55  1  0
 32 56  1  0
M  END
>  <21666828|PCSK9_Human_KD_nM_PREFIX|1>  (1) 
<

>  <21666828|PCSK9_Human_KD_nM|1>  (1) 
200

>  <CHROM.1>  (1) 
-101.21864089,13.48609472,-176.60113852,-50.97068031,-81.15809828,-70.81124631
-15.35993922,40.39055688,170.29597522

>  <COMPOUND_ID>  (1) 
Example_16

>  <EmbedRMS>  (1) 
0.08748780810758473

>  <GVK_ID>  (1) 
124889462

>  <ISOMER>  (1) 
None

>  <Kd_Range>  (1) 
< 200

>  <Name>  (1) 


>  <PAGE>  (1) 
57

>  <REFERENCE>  (1) 
WO 2020/150474 A1

>  <REF_ID>  (1) 
2133368

>  <RI>  (1) 
1.98397e+07

>  <Rbt.Current_Directory>  (1) 
/dev/shm/dwight/Example-16

>  <Rbt.Executable>  (1) 
rbdock ($Id: //depot/dev/client3/rdock/2013.1/src/exe/rbdock.cxx#4 $)

>  <Rbt.Library>  (1) 
libRbt.so (2013.1, Build901 2013/11/27)

>  <Rbt.Parameter_File>  (1) 
dock.prm

>  <Rbt.Receptor>  (1) 
receptor.prm

>  <SCORE>  (1) 
28.5203

>  <SCORE.INTER>  (1) 
24.888

>  <SCORE.INTER.CONST>  (1) 
1

>  <SCORE.INTER.POLAR>  (1) 
-1.60963

>  <SCORE.INTER.REPUL>  (1) 
0.00118643

>  <SCORE.INTER.ROT>  (1) 
9

>  <SCORE.INTER.VDW>  (1) 
15.9548

>  <SCORE.INTER.norm>  (1) 
0.77775

>  <SCORE.INTRA>  (1) 
3.63232

>  <SCORE.INTRA.DIHEDRAL>  (1) 
9.14137

>  <SCORE.INTRA.DIHEDRAL.0>  (1) 
13.8593

>  <SCORE.INTRA.POLAR>  (1) 
0

>  <SCORE.INTRA.POLAR.0>  (1) 
0

>  <SCORE.INTRA.REPUL>  (1) 
0

>  <SCORE.INTRA.REPUL.0>  (1) 
0

>  <SCORE.INTRA.VDW>  (1) 
-0.938362

>  <SCORE.INTRA.VDW.0>  (1) 
1.78379

>  <SCORE.INTRA.norm>  (1) 
0.11351

>  <SCORE.RESTR>  (1) 
0

>  <SCORE.RESTR.CAVITY>  (1) 
0

>  <SCORE.RESTR.norm>  (1) 
0

>  <SCORE.SYSTEM>  (1) 
0

>  <SCORE.SYSTEM.CONST>  (1) 
0

>  <SCORE.SYSTEM.DIHEDRAL>  (1) 
0

>  <SCORE.SYSTEM.norm>  (1) 
0

>  <SCORE.heavy>  (1) 
32

>  <SCORE.norm>  (1) 
0.891261

>  <TETHERED ATOMS>  (1) 
9,8,11,12,13,7,6

>  <_MOLCOUNT>  (1) 
1

$$$$
