Cpptraj Generated mol2 file.
     RDKit          3D

 54 57  0  0  0  0  0  0  0  0999 V2000
   35.7997   55.1091   27.8473 C   0  0  0  0  0  0  0  0  0  0  0  0
   36.0211   55.4673   29.1389 S   0  0  0  0  0  0  0  0  0  0  0  0
   36.7096   56.5410   29.5201 C   0  0  0  0  0  3  0  0  0  0  0  0
   36.6605   57.7603   28.8420 C   0  0  0  0  0  3  0  0  0  0  0  0
   37.3301   58.8703   29.1875 N   0  0  0  0  0  2  0  0  0  0  0  0
   38.0553   58.7801   30.3847 C   0  0  0  0  0  3  0  0  0  0  0  0
   38.8212   59.9135   30.6445 N   0  0  0  0  0  0  0  0  0  0  0  0
   38.5079   60.6089   31.9016 C   0  0  0  0  0  0  0  0  0  0  0  0
   39.6760   61.3500   32.5608 C   0  0  2  0  0  0  0  0  0  0  0  0
   40.9324   60.5192   32.9468 C   0  0  0  0  0  0  0  0  0  0  0  0
   39.1283   62.1782   33.7984 C   0  0  0  0  0  0  0  0  0  0  0  0
   37.9847   63.0964   33.4346 N   0  0  0  0  0  0  0  0  0  0  0  0
   37.7285   64.2456   34.0931 C   0  0  0  0  0  3  0  0  0  0  0  0
   36.5637   64.3572   34.5980 N   0  0  0  0  0  2  0  0  0  0  0  0
   36.4660   65.5794   35.1705 C   0  0  0  0  0  3  0  0  0  0  0  0
   37.6058   66.3140   35.2842 C   0  0  0  0  0  3  0  0  0  0  0  0
   38.9183   65.5364   34.4499 S   0  0  0  0  0  0  0  0  0  0  0  0
   37.6432   67.4664   35.9870 C   0  0  0  0  0  3  0  0  0  0  0  0
   36.5080   67.9845   36.5679 C   0  0  0  0  0  3  0  0  0  0  0  0
   35.2847   67.2634   36.3907 C   0  0  0  0  0  3  0  0  0  0  0  0
   35.2799   66.0869   35.6209 C   0  0  0  0  0  3  0  0  0  0  0  0
   36.5934   69.3291   37.2925 C   0  0  0  0  0  3  0  0  0  0  0  0
   37.7009   69.6596   37.6802 O   0  0  0  0  0  1  0  0  0  0  0  0
   35.3377   70.0269   37.3259 N   0  0  0  0  0  0  0  0  0  0  0  0
   35.6698   71.4404   37.8156 C   0  0  0  0  0  0  0  0  0  0  0  0
   34.8890   71.9592   36.4935 C   0  0  0  0  0  0  0  0  0  0  0  0
   35.2889   73.0867   35.6834 O   0  0  0  0  0  0  0  0  0  0  0  0
   35.2607   70.5334   35.9363 C   0  0  0  0  0  0  0  0  0  0  0  0
   38.0334   57.7047   31.2525 N   0  0  0  0  0  2  0  0  0  0  0  0
   37.4244   56.6112   30.7411 C   0  0  0  0  0  3  0  0  0  0  0  0
   36.7710   55.6102   27.7531 H   0  0  0  0  0  0  0  0  0  0  0  0
   35.8896   54.0248   27.9869 H   0  0  0  0  0  0  0  0  0  0  0  0
   35.4786   55.9427   27.2105 H   0  0  0  0  0  0  0  0  0  0  0  0
   36.0389   57.8952   27.9581 H   0  0  0  0  0  0  0  0  0  0  0  0
   38.8459   60.6861   29.9914 H   0  0  0  0  0  0  0  0  0  0  0  0
   37.6772   61.2495   31.5804 H   0  0  0  0  0  0  0  0  0  0  0  0
   38.0506   59.9629   32.6612 H   0  0  0  0  0  0  0  0  0  0  0  0
   40.0410   62.0139   31.7674 H   0  0  0  0  0  0  0  0  0  0  0  0
   40.7050   59.6759   33.6105 H   0  0  0  0  0  0  0  0  0  0  0  0
   41.4469   60.0266   32.1125 H   0  0  0  0  0  0  0  0  0  0  0  0
   41.7507   61.0581   33.4402 H   0  0  0  0  0  0  0  0  0  0  0  0
   38.8126   61.5763   34.6594 H   0  0  0  0  0  0  0  0  0  0  0  0
   40.0245   62.7440   34.0813 H   0  0  0  0  0  0  0  0  0  0  0  0
   37.0697   62.6649   33.4074 H   0  0  0  0  0  0  0  0  0  0  0  0
   38.5996   67.9699   36.0926 H   0  0  0  0  0  0  0  0  0  0  0  0
   34.4389   67.7866   36.8269 H   0  0  0  0  0  0  0  0  0  0  0  0
   34.3706   65.5419   35.3852 H   0  0  0  0  0  0  0  0  0  0  0  0
   35.1353   71.6141   38.7554 H   0  0  0  0  0  0  0  0  0  0  0  0
   36.7028   71.7145   38.0543 H   0  0  0  0  0  0  0  0  0  0  0  0
   33.8235   72.1173   36.6907 H   0  0  0  0  0  0  0  0  0  0  0  0
   35.3201   73.8346   36.3050 H   0  0  0  0  0  0  0  0  0  0  0  0
   34.5133   70.0926   35.2685 H   0  0  0  0  0  0  0  0  0  0  0  0
   36.1631   70.4902   35.3175 H   0  0  0  0  0  0  0  0  0  0  0  0
   37.4606   55.6656   31.2802 H   0  0  0  0  0  0  0  0  0  0  0  0
 29 30  1  0
 26 27  1  0
 26 28  1  0
 25 26  1  0
 24 25  1  0
 24 28  1  0
 22 23  1  0
 22 24  1  0
 20 21  1  0
 19 20  1  0
 19 22  1  0
 18 19  1  0
 16 17  1  0
 16 18  1  0
 15 16  1  0
 15 21  1  0
 14 15  1  0
 13 14  1  0
 13 17  1  0
 12 13  1  0
 11 12  1  0
  9 10  1  0
  9 11  1  0
  8  9  1  0
  7  8  1  0
  6  7  1  0
  6 29  1  0
  5  6  1  0
  4  5  1  0
  3  4  1  0
  3 30  1  0
  2  3  1  0
  1  2  1  0
 30 54  1  0
 28 52  1  0
 28 53  1  0
 27 51  1  0
 26 50  1  0
 25 48  1  0
 25 49  1  0
 21 47  1  0
 20 46  1  0
 18 45  1  0
 12 44  1  0
 11 42  1  0
 11 43  1  0
 10 39  1  0
 10 40  1  0
 10 41  1  0
  9 38  1  6
  8 36  1  0
  8 37  1  0
  7 35  1  0
  4 34  1  0
  1 31  1  0
  1 32  1  0
  1 33  1  0
M  RAD  8   3   2   4   2   6   2  13   2  15   2  16   2  18   2  19   2
M  CHG  4   5  -1  14  -1  23  -1  29  -1
M  RAD  4  20   2  21   2  22   2  30   2
M  END
>  <_TriposChargeType>  (1) 
USER_CHARGES

$$$$
