@<TRIPOS>MOLECULE
Cpptraj Generated mol2 file.
   54    57     1     0     0
SMALL
USER_CHARGES


@<TRIPOS>ATOM
      1 C1         35.5294   51.7168   28.7858 C.aa         1 L1      -0.189471
      2 S1         34.8002   52.3897   30.3988 S.ab         1 L1      -0.239742
      3 C2         35.4014   54.0361   30.6601 C.ad         1 L1       0.100276
      4 C3         35.8362   54.8297   29.5437 C.ae         1 L1      -0.074180
      5 N1         36.5267   56.0204   29.7224 N.af         1 L1      -0.247207
      6 C4         36.6777   56.4270   30.9899 C.ah         1 L1       0.321108
      7 N2         37.0703   57.7800   31.0974 N.ai         1 L1      -0.552140
      8 C5         36.7570   58.4754   32.3545 C.aj         1 L1       0.053487
      9 C6         37.9251   59.2165   33.0137 C.ak         1 L1       0.134450
     10 C7         39.1815   58.3857   33.3997 C.an         1 L1      -0.296791
     11 C8         37.3774   60.0447   34.2513 C.ao         1 L1       0.056040
     12 N3         36.2338   60.9629   33.8875 N.ap         1 L1      -0.487672
     13 C9         35.9776   62.1121   34.5460 C.aq         1 L1       0.223739
     14 N4         34.8128   62.2237   35.0509 N.av         1 L1      -0.265549
     15 C10        34.7151   63.4459   35.6234 C.aw         1 L1       0.123143
     16 C11        35.8549   64.1805   35.7371 C.ax         1 L1       0.076513
     17 S2         37.1674   63.4029   34.9028 S.ay         1 L1      -0.124863
     18 C12        35.8923   65.3329   36.4399 C.az         1 L1      -0.245756
     19 C13        34.7571   65.8510   37.0208 C.bb         1 L1       0.012572
     20 C14        33.5338   65.1299   36.8436 C.bc         1 L1      -0.200955
     21 C15        33.5290   63.9534   36.0738 C.bd         1 L1      -0.208783
     22 C16        34.8425   67.1956   37.7454 C.bf         1 L1       0.641626
     23 O1         35.9500   67.5261   38.1331 O.bg         1 L1      -0.616781
     24 N5         33.5868   67.8934   37.7788 N.bh         1 L1      -0.294584
     25 C17        33.9189   69.3069   38.2685 C.bj         1 L1      -0.050894
     26 C18        33.1381   69.8257   36.9464 C.bk         1 L1       0.155962
     27 O2         33.5380   70.9532   36.1363 O.bl         1 L1      -0.606465
     28 C19        33.5098   68.3999   36.3892 C.bm         1 L1      -0.050894
     29 N6         36.3499   55.7206   32.1390 N.bn         1 L1      -0.247207
     30 C20        35.7759   54.4992   31.9113 C.bo         1 L1      -0.074180
     31 H1         36.5007   52.2179   28.6916 H.bp         1 L1       0.111278
     32 H2         35.6193   50.6325   28.9254 H.bq         1 L1       0.111278
     33 H3         34.9163   51.9398   27.9038 H.bs         1 L1       0.111278
     34 H4         35.7836   54.4929   28.5094 H.bt         1 L1       0.140606
     35 H5         36.8953   58.3013   30.2478 H.bu         1 L1       0.357381
     36 H6         35.9263   59.1160   32.0333 H.bv         1 L1       0.066558
     37 H7         36.2997   57.8294   33.1141 H.bw         1 L1       0.066558
     38 H8         38.2901   59.8804   32.2203 H.bx         1 L1       0.012729
     39 H9         38.9541   57.5424   34.0634 H.by         1 L1       0.081859
     40 H10        39.6960   57.8931   32.5654 H.bz         1 L1       0.081859
     41 H11        39.9998   58.9246   33.8931 H.cb         1 L1       0.081859
     42 H12        37.0617   59.4428   35.1123 H.ci         1 L1       0.068294
     43 H13        38.2736   60.6105   34.5342 H.cj         1 L1       0.068294
     44 H14        35.3188   60.5314   33.8603 H.ck         1 L1       0.362662
     45 H15        36.8487   65.8364   36.5455 H.cm         1 L1       0.167884
     46 H16        32.6880   65.6531   37.2798 H.cn         1 L1       0.143830
     47 H17        32.6197   63.4084   35.8381 H.ct         1 L1       0.158107
     48 H18        33.3844   69.4806   39.2083 H.cw         1 L1       0.094447
     49 H19        34.9519   69.5810   38.5072 H.da         1 L1       0.094447
     50 H20        32.0726   69.9838   37.1436 H.db         1 L1       0.056951
     51 H21        33.5692   71.7011   36.7579 H.dc         1 L1       0.407541
     52 H22        32.7624   67.9591   35.7214 H.dd         1 L1       0.094447
     53 H23        34.4122   68.3567   35.7704 H.de         1 L1       0.094447
     54 H24        35.4796   54.0079   32.8369 H.df         1 L1       0.140606
@<TRIPOS>BOND
    1    29    30 1
    2    26    27 1
    3    26    28 1
    4    25    26 1
    5    24    25 1
    6    24    28 1
    7    22    23 1
    8    22    24 1
    9    20    21 1
   10    19    20 1
   11    19    22 1
   12    18    19 1
   13    16    17 1
   14    16    18 1
   15    15    16 1
   16    15    21 1
   17    14    15 1
   18    13    14 1
   19    13    17 1
   20    12    13 1
   21    11    12 1
   22     9    10 1
   23     9    11 1
   24     8     9 1
   25     7     8 1
   26     6     7 1
   27     6    29 1
   28     5     6 1
   29     4     5 1
   30     3     4 1
   31     3    30 1
   32     2     3 1
   33     1     2 1
   34    30    54 1
   35    28    52 1
   36    28    53 1
   37    27    51 1
   38    26    50 1
   39    25    48 1
   40    25    49 1
   41    21    47 1
   42    20    46 1
   43    18    45 1
   44    12    44 1
   45    11    42 1
   46    11    43 1
   47    10    39 1
   48    10    40 1
   49    10    41 1
   50     9    38 1
   51     8    36 1
   52     8    37 1
   53     7    35 1
   54     4    34 1
   55     1    31 1
   56     1    32 1
   57     1    33 1
@<TRIPOS>SUBSTRUCTURE
      1 L1                1 L.****               0 L.****  L.**** 
