
     RDKit          3D

 60 63  0  0  0  0  0  0  0  0999 V2000
  -26.1963   41.9582  -10.8948 C   0  0  0  0  0  0  0  0  0  0  0  0
  -27.1891   40.9744   -9.7294 S   0  0  0  0  0  0  0  0  0  0  0  0
  -26.3768   39.4326  -10.1528 C   0  0  0  0  0  0  0  0  0  0  0  0
  -25.1361   39.1044   -9.6045 C   0  0  0  0  0  0  0  0  0  0  0  0
  -24.5359   37.9332   -9.9407 N   0  0  0  0  0  0  0  0  0  0  0  0
  -25.1238   37.0669  -10.8091 C   0  0  0  0  0  0  0  0  0  0  0  0
  -24.4627   35.8399  -11.1440 N   0  0  0  0  0  0  0  0  0  0  0  0
  -25.1317   34.7665  -11.8912 C   0  0  0  0  0  0  0  0  0  0  0  0
  -24.1985   33.5710  -12.0950 C   0  0  0  0  0  0  0  0  0  0  0  0
  -24.4589   32.6092  -10.9347 C   0  0  0  0  0  0  0  0  0  0  0  0
  -25.6605   33.1643  -10.1630 C   0  0  0  0  0  0  0  0  0  0  0  0
  -26.2938   34.2032  -11.0832 C   0  0  0  0  0  0  0  0  0  0  0  0
  -26.6082   32.1064   -9.7974 N   0  0  0  0  0  0  0  0  0  0  0  0
  -26.4242   31.2764   -8.6443 C   0  0  0  0  0  0  0  0  0  0  0  0
  -25.9351   31.7557   -7.4751 N   0  0  0  0  0  0  0  0  0  0  0  0
  -25.8580   30.7705   -6.5443 C   0  0  0  0  0  0  0  0  0  0  0  0
  -26.2794   29.5214   -6.9679 C   0  0  0  0  0  0  0  0  0  0  0  0
  -26.7782   29.6177   -8.5674 S   0  0  0  0  0  0  0  0  0  0  0  0
  -26.2659   28.4105   -6.1296 C   0  0  0  0  0  0  0  0  0  0  0  0
  -25.7995   28.5702   -4.8057 C   0  0  0  0  0  0  0  0  0  0  0  0
  -25.3773   29.8515   -4.3699 C   0  0  0  0  0  0  0  0  0  0  0  0
  -25.4022   30.9541   -5.2404 C   0  0  0  0  0  0  0  0  0  0  0  0
  -25.7749   27.4233   -3.8680 C   0  0  0  0  0  0  0  0  0  0  0  0
  -26.2111   27.5674   -2.6936 O   0  0  0  0  0  0  0  0  0  0  0  0
  -25.2593   26.1479   -4.2709 N   0  0  0  0  0  0  0  0  0  0  0  0
  -25.3950   25.0600   -3.4618 O   0  0  0  0  0  0  0  0  0  0  0  0
  -26.6817   24.4848   -3.6580 C   0  0  0  0  0  0  0  0  0  0  0  0
  -26.8658   23.9680   -5.1031 C   0  0  0  0  0  0  0  0  0  0  0  0
  -27.7074   25.6031   -3.4120 C   0  0  0  0  0  0  0  0  0  0  0  0
  -26.9511   23.3480   -2.6458 C   0  0  0  0  0  0  0  0  0  0  0  0
  -26.3309   37.3772  -11.3576 N   0  0  0  0  0  0  0  0  0  0  0  0
  -26.9644   38.5376  -11.0477 C   0  0  0  0  0  0  0  0  0  0  0  0
  -25.3230   41.3835  -11.2032 H   0  0  0  0  0  0  0  0  0  0  0  0
  -26.7987   42.2015  -11.7699 H   0  0  0  0  0  0  0  0  0  0  0  0
  -25.8725   42.8787  -10.4091 H   0  0  0  0  0  0  0  0  0  0  0  0
  -24.6300   39.7704   -8.9056 H   0  0  0  0  0  0  0  0  0  0  0  0
  -23.5038   35.7291  -10.8468 H   0  0  0  0  0  0  0  0  0  0  0  0
  -25.4357   35.2400  -12.8247 H   0  0  0  0  0  0  0  0  0  0  0  0
  -24.5090   33.0678  -13.0107 H   0  0  0  0  0  0  0  0  0  0  0  0
  -23.1761   33.9348  -11.9929 H   0  0  0  0  0  0  0  0  0  0  0  0
  -24.7613   31.6548  -11.3657 H   0  0  0  0  0  0  0  0  0  0  0  0
  -23.5950   32.6586  -10.2719 H   0  0  0  0  0  0  0  0  0  0  0  0
  -25.3837   33.5831   -9.1955 H   0  0  0  0  0  0  0  0  0  0  0  0
  -26.9546   33.6783  -11.7731 H   0  0  0  0  0  0  0  0  0  0  0  0
  -26.6848   35.0067  -10.4590 H   0  0  0  0  0  0  0  0  0  0  0  0
  -27.4261   31.9417  -10.3666 H   0  0  0  0  0  0  0  0  0  0  0  0
  -26.6103   27.4444   -6.4990 H   0  0  0  0  0  0  0  0  0  0  0  0
  -25.0273   29.9914   -3.3471 H   0  0  0  0  0  0  0  0  0  0  0  0
  -25.0723   31.9386   -4.9087 H   0  0  0  0  0  0  0  0  0  0  0  0
  -24.7856   26.0116   -5.1523 H   0  0  0  0  0  0  0  0  0  0  0  0
  -27.2864   24.7608   -5.7217 H   0  0  0  0  0  0  0  0  0  0  0  0
  -25.8994   23.6660   -5.5069 H   0  0  0  0  0  0  0  0  0  0  0  0
  -27.5415   23.1126   -5.0998 H   0  0  0  0  0  0  0  0  0  0  0  0
  -27.3510   26.2537   -2.6134 H   0  0  0  0  0  0  0  0  0  0  0  0
  -27.8363   26.1851   -4.3246 H   0  0  0  0  0  0  0  0  0  0  0  0
  -28.6622   25.1634   -3.1236 H   0  0  0  0  0  0  0  0  0  0  0  0
  -27.0634   23.7699   -1.6471 H   0  0  0  0  0  0  0  0  0  0  0  0
  -27.8652   22.8233   -2.9235 H   0  0  0  0  0  0  0  0  0  0  0  0
  -26.1146   22.6493   -2.6531 H   0  0  0  0  0  0  0  0  0  0  0  0
  -27.9292   38.7474  -11.5098 H   0  0  0  0  0  0  0  0  0  0  0  0
  1  2  1  0
  2  3  1  0
  3  4  2  0
  4  5  1  0
  5  6  2  0
  6  7  1  0
  8  7  1  0
  8  9  1  0
  9 10  1  0
 11 10  1  0
 11 12  1  0
  8 12  1  0
 11 13  1  0
 13 14  1  0
 14 15  2  0
 15 16  1  0
 16 17  2  0
 17 18  1  0
 14 18  1  0
 17 19  1  0
 19 20  2  0
 20 21  1  0
 21 22  2  0
 16 22  1  0
 20 23  1  0
 23 24  2  0
 23 25  1  0
 25 26  1  0
 26 27  1  0
 27 28  1  0
 27 29  1  0
 27 30  1  0
  6 31  1  0
 31 32  2  0
  3 32  1  0
  1 33  1  0
  1 34  1  0
  1 35  1  0
  4 36  1  0
  7 37  1  0
  8 38  1  0
  9 39  1  0
  9 40  1  0
 10 41  1  0
 10 42  1  0
 11 43  1  0
 12 44  1  0
 12 45  1  0
 13 46  1  0
 19 47  1  0
 21 48  1  0
 22 49  1  0
 25 50  1  0
 28 51  1  0
 28 52  1  0
 28 53  1  0
 29 54  1  0
 29 55  1  0
 29 56  1  0
 30 57  1  0
 30 58  1  0
 30 59  1  0
 32 60  1  0
M  END
>  <21666828|PCSK9_Human_KD_nM_PREFIX|1>  (1) 
>=

>  <21666828|PCSK9_Human_KD_nM_REMARKS|1>  (1) 
Range >= 200 nM to < 2000 nM

>  <21666828|PCSK9_Human_KD_nM|1>  (1) 
200

>  <CHROM.1>  (1) 
80.57298768,169.60963545,-179.40645171,82.38586986,38.19235123,-133.96493450
83.29843977,62.87994064

>  <COMPOUND_ID>  (1) 
Example_344

>  <EmbedRMS>  (1) 
0.00636206670025924

>  <GVK_ID>  (1) 
124889631

>  <ISOMER>  (1) 
None

>  <Kd_Range>  (1) 
>= 200

>  <Name>  (1) 


>  <PAGE>  (1) 
165

>  <REFERENCE>  (1) 
WO 2020/150474 A1

>  <REF_ID>  (1) 
2133368

>  <RI>  (1) 
1.50351e+07

>  <Rbt.Current_Directory>  (1) 
/dev/shm/dwight/Example-344

>  <Rbt.Executable>  (1) 
rbdock ($Id: //depot/dev/client3/rdock/2013.1/src/exe/rbdock.cxx#4 $)

>  <Rbt.Library>  (1) 
libRbt.so (2013.1, Build901 2013/11/27)

>  <Rbt.Parameter_File>  (1) 
dock.prm

>  <Rbt.Receptor>  (1) 
receptor.prm

>  <SCORE>  (1) 
98.7325

>  <SCORE.INTER>  (1) 
67.1139

>  <SCORE.INTER.CONST>  (1) 
1

>  <SCORE.INTER.POLAR>  (1) 
-0.367221

>  <SCORE.INTER.REPUL>  (1) 
0

>  <SCORE.INTER.ROT>  (1) 
8

>  <SCORE.INTER.VDW>  (1) 
54.9624

>  <SCORE.INTER.norm>  (1) 
2.09731

>  <SCORE.INTRA>  (1) 
31.6187

>  <SCORE.INTRA.DIHEDRAL>  (1) 
42.213

>  <SCORE.INTRA.DIHEDRAL.0>  (1) 
12.2989

>  <SCORE.INTRA.POLAR>  (1) 
0

>  <SCORE.INTRA.POLAR.0>  (1) 
0

>  <SCORE.INTRA.REPUL>  (1) 
0

>  <SCORE.INTRA.REPUL.0>  (1) 
0

>  <SCORE.INTRA.VDW>  (1) 
10.5122

>  <SCORE.INTRA.VDW.0>  (1) 
-0.406159

>  <SCORE.INTRA.norm>  (1) 
0.988083

>  <SCORE.RESTR>  (1) 
0

>  <SCORE.RESTR.CAVITY>  (1) 
0

>  <SCORE.RESTR.norm>  (1) 
0

>  <SCORE.SYSTEM>  (1) 
0

>  <SCORE.SYSTEM.CONST>  (1) 
0

>  <SCORE.SYSTEM.DIHEDRAL>  (1) 
0

>  <SCORE.SYSTEM.norm>  (1) 
0

>  <SCORE.heavy>  (1) 
32

>  <SCORE.norm>  (1) 
3.08539

>  <TETHERED ATOMS>  (1) 
12,11,10,9,8,7,6,13,14

>  <_MOLCOUNT>  (1) 
1

$$$$
