
     RDKit          3D

 53 56  0  0  0  0  0  0  0  0999 V2000
  -26.2012   28.4620   -4.4757 C   0  0  0  0  0  0  0  0  0  0  0  0
  -25.2546   27.7895   -5.8767 S   0  0  0  0  0  0  0  0  0  0  0  0
  -25.6803   29.1455   -6.9706 C   0  0  0  0  0  0  0  0  0  0  0  0
  -24.8351   30.2479   -7.1044 C   0  0  0  0  0  0  0  0  0  0  0  0
  -25.1780   31.2663   -7.9350 N   0  0  0  0  0  0  0  0  0  0  0  0
  -26.3411   31.2349   -8.6424 C   0  0  0  0  0  0  0  0  0  0  0  0
  -26.6892   32.3114   -9.5172 N   0  0  0  0  0  0  0  0  0  0  0  0
  -25.6678   33.1121  -10.1928 C   0  0  0  0  0  0  0  0  0  0  0  0
  -26.2689   34.1379  -11.1841 C   0  0  0  0  0  0  0  0  0  0  0  0
  -27.1909   33.4674  -12.2258 C   0  0  0  0  0  0  0  0  0  0  0  0
  -25.1199   34.8348  -11.9437 C   0  0  0  0  0  0  0  0  0  0  0  0
  -24.4316   35.8024  -11.0992 N   0  0  0  0  0  0  0  0  0  0  0  0
  -24.8167   37.1803  -11.0725 C   0  0  0  0  0  0  0  0  0  0  0  0
  -24.1501   38.1313  -10.3722 N   0  0  0  0  0  0  0  0  0  0  0  0
  -24.7326   39.3453  -10.5400 C   0  0  0  0  0  0  0  0  0  0  0  0
  -25.8450   39.3584  -11.3648 C   0  0  0  0  0  0  0  0  0  0  0  0
  -26.1411   37.8027  -11.9233 S   0  0  0  0  0  0  0  0  0  0  0  0
  -26.5497   40.5272  -11.6379 C   0  0  0  0  0  0  0  0  0  0  0  0
  -26.1158   41.7308  -11.0420 C   0  0  0  0  0  0  0  0  0  0  0  0
  -24.9685   41.7206  -10.2119 C   0  0  0  0  0  0  0  0  0  0  0  0
  -24.2764   40.5249   -9.9550 C   0  0  0  0  0  0  0  0  0  0  0  0
  -26.8448   42.9867  -11.3178 C   0  0  0  0  0  0  0  0  0  0  0  0
  -28.0129   43.1366  -10.8694 O   0  0  0  0  0  0  0  0  0  0  0  0
  -26.2400   44.0609  -12.0434 N   0  0  0  0  0  0  0  0  0  0  0  0
  -26.6423   45.4222  -12.4467 C   0  0  0  0  0  0  0  0  0  0  0  0
  -25.3045   45.8327  -12.9614 C   0  0  0  0  0  0  0  0  0  0  0  0
  -24.6989   46.8286  -12.2142 F   0  0  0  0  0  0  0  0  0  0  0  0
  -25.2732   46.0476  -14.3289 F   0  0  0  0  0  0  0  0  0  0  0  0
  -24.9107   44.4525  -12.5572 C   0  0  0  0  0  0  0  0  0  0  0  0
  -27.1759   30.1677   -8.5198 N   0  0  0  0  0  0  0  0  0  0  0  0
  -26.8700   29.1288   -7.7001 C   0  0  0  0  0  0  0  0  0  0  0  0
  -25.8598   27.9980   -3.5504 H   0  0  0  0  0  0  0  0  0  0  0  0
  -26.0499   29.5399   -4.4190 H   0  0  0  0  0  0  0  0  0  0  0  0
  -27.2610   28.2508   -4.6185 H   0  0  0  0  0  0  0  0  0  0  0  0
  -23.8965   30.3143   -6.5541 H   0  0  0  0  0  0  0  0  0  0  0  0
  -27.6694   32.5087   -9.6598 H   0  0  0  0  0  0  0  0  0  0  0  0
  -25.1832   33.6798   -9.3984 H   0  0  0  0  0  0  0  0  0  0  0  0
  -25.0922   32.3973  -10.7808 H   0  0  0  0  0  0  0  0  0  0  0  0
  -26.8589   34.8499  -10.6070 H   0  0  0  0  0  0  0  0  0  0  0  0
  -27.9685   32.9019  -11.7122 H   0  0  0  0  0  0  0  0  0  0  0  0
  -27.6509   34.2333  -12.8502 H   0  0  0  0  0  0  0  0  0  0  0  0
  -26.6041   32.7937  -12.8502 H   0  0  0  0  0  0  0  0  0  0  0  0
  -24.3745   34.0741  -12.1756 H   0  0  0  0  0  0  0  0  0  0  0  0
  -25.5683   35.4210  -12.7459 H   0  0  0  0  0  0  0  0  0  0  0  0
  -23.6629   35.5087  -10.5136 H   0  0  0  0  0  0  0  0  0  0  0  0
  -27.4159   40.5008  -12.2990 H   0  0  0  0  0  0  0  0  0  0  0  0
  -24.6124   42.6480   -9.7634 H   0  0  0  0  0  0  0  0  0  0  0  0
  -23.3974   40.5126   -9.3105 H   0  0  0  0  0  0  0  0  0  0  0  0
  -27.3505   45.3612  -13.2730 H   0  0  0  0  0  0  0  0  0  0  0  0
  -26.8890   46.0052  -11.5593 H   0  0  0  0  0  0  0  0  0  0  0  0
  -24.6760   43.8631  -13.4436 H   0  0  0  0  0  0  0  0  0  0  0  0
  -24.2015   44.5001  -11.7308 H   0  0  0  0  0  0  0  0  0  0  0  0
  -27.5682   28.2948   -7.6288 H   0  0  0  0  0  0  0  0  0  0  0  0
  1  2  1  0
  2  3  1  0
  3  4  2  0
  4  5  1  0
  5  6  2  0
  6  7  1  0
  7  8  1  0
  9  8  1  0
  9 10  1  0
  9 11  1  0
 11 12  1  0
 12 13  1  0
 13 14  2  0
 14 15  1  0
 15 16  2  0
 16 17  1  0
 13 17  1  0
 16 18  1  0
 18 19  2  0
 19 20  1  0
 20 21  2  0
 15 21  1  0
 19 22  1  0
 22 23  2  0
 22 24  1  0
 24 25  1  0
 25 26  1  0
 26 27  1  0
 26 28  1  0
 26 29  1  0
 24 29  1  0
  6 30  1  0
 30 31  2  0
  3 31  1  0
  1 32  1  0
  1 33  1  0
  1 34  1  0
  4 35  1  0
  7 36  1  0
  8 37  1  0
  8 38  1  0
  9 39  1  0
 10 40  1  0
 10 41  1  0
 10 42  1  0
 11 43  1  0
 11 44  1  0
 12 45  1  0
 18 46  1  0
 20 47  1  0
 21 48  1  0
 25 49  1  0
 25 50  1  0
 29 51  1  0
 29 52  1  0
 31 53  1  0
M  END
>  <21666828|PCSK9_Human_KD_nM_PREFIX|1>  (1) 
<

>  <21666828|PCSK9_Human_KD_nM|1>  (1) 
200

>  <CHROM.1>  (1) 
94.20560739,29.90391679,174.93434164,-55.11607600,-74.60380165,-92.43125857
-175.43238749,68.58644702

>  <COMPOUND_ID>  (1) 
Example_26

>  <EmbedRMS>  (1) 
0.08754923122927306

>  <GVK_ID>  (1) 
124889472

>  <ISOMER>  (1) 
None

>  <Kd_Range>  (1) 
< 200

>  <Name>  (1) 


>  <PAGE>  (1) 
59

>  <REFERENCE>  (1) 
WO 2020/150474 A1

>  <REF_ID>  (1) 
2133368

>  <RI>  (1) 
4.42068e+07

>  <Rbt.Current_Directory>  (1) 
/dev/shm/dwight/Example-26

>  <Rbt.Executable>  (1) 
rbdock ($Id: //depot/dev/client3/rdock/2013.1/src/exe/rbdock.cxx#4 $)

>  <Rbt.Library>  (1) 
libRbt.so (2013.1, Build901 2013/11/27)

>  <Rbt.Parameter_File>  (1) 
dock.prm

>  <Rbt.Receptor>  (1) 
receptor.prm

>  <SCORE>  (1) 
27.0882

>  <SCORE.INTER>  (1) 
25.5024

>  <SCORE.INTER.CONST>  (1) 
1

>  <SCORE.INTER.POLAR>  (1) 
-2.12892

>  <SCORE.INTER.REPUL>  (1) 
0

>  <SCORE.INTER.ROT>  (1) 
8

>  <SCORE.INTER.VDW>  (1) 
19.3407

>  <SCORE.INTER.norm>  (1) 
0.822656

>  <SCORE.INTRA>  (1) 
1.58583

>  <SCORE.INTRA.DIHEDRAL>  (1) 
9.13684

>  <SCORE.INTRA.DIHEDRAL.0>  (1) 
13.2006

>  <SCORE.INTRA.POLAR>  (1) 
0

>  <SCORE.INTRA.POLAR.0>  (1) 
0

>  <SCORE.INTRA.REPUL>  (1) 
0

>  <SCORE.INTRA.REPUL.0>  (1) 
0

>  <SCORE.INTRA.VDW>  (1) 
-2.98258

>  <SCORE.INTRA.VDW.0>  (1) 
2.32008

>  <SCORE.INTRA.norm>  (1) 
0.0511559

>  <SCORE.RESTR>  (1) 
0

>  <SCORE.RESTR.CAVITY>  (1) 
0

>  <SCORE.RESTR.norm>  (1) 
0

>  <SCORE.SYSTEM>  (1) 
0

>  <SCORE.SYSTEM.CONST>  (1) 
0

>  <SCORE.SYSTEM.DIHEDRAL>  (1) 
0

>  <SCORE.SYSTEM.norm>  (1) 
0

>  <SCORE.heavy>  (1) 
31

>  <SCORE.norm>  (1) 
0.873812

>  <TETHERED ATOMS>  (1) 
9,8,11,12,13,7,6

>  <_MOLCOUNT>  (1) 
1

$$$$
