Cpptraj Generated mol2 file.
     RDKit          3D

 48 51  0  0  0  0  0  0  0  0999 V2000
   38.8287   69.3482   35.8160 C   0  0  0  0  0  0  0  0  0  0  0  0
   37.6221   68.0111   35.6908 S   0  0  0  0  0  0  0  0  0  0  0  0
   38.3903   66.6254   34.9349 C   0  0  0  0  0  3  0  0  0  0  0  0
   39.6860   66.1896   34.6078 C   0  0  0  0  0  3  0  0  0  0  0  0
   39.9245   64.8643   34.4928 N   0  0  0  0  0  2  0  0  0  0  0  0
   38.8881   63.9543   34.6077 C   0  0  0  0  0  3  0  0  0  0  0  0
   39.2226   62.6604   34.4136 N   0  0  0  0  0  0  0  0  0  0  0  0
   40.0887   62.1551   33.3185 C   0  0  1  0  0  0  0  0  0  0  0  0
   40.8214   60.8222   33.6316 C   0  0  0  0  0  0  0  0  0  0  0  0
   40.3470   59.7359   32.6488 C   0  0  0  0  0  0  0  0  0  0  0  0
   39.1011   60.3496   31.9940 C   0  0  1  0  0  0  0  0  0  0  0  0
   39.2970   61.8133   32.1115 C   0  0  0  0  0  0  0  0  0  0  0  0
   38.8212   59.9135   30.6445 N   0  0  0  0  0  0  0  0  0  0  0  0
   38.0553   58.7801   30.3847 C   0  0  0  0  0  3  0  0  0  0  0  0
   38.0334   57.7047   31.2525 C   0  0  0  0  0  3  0  0  0  0  0  0
   37.4244   56.6112   30.7411 C   0  0  0  0  0  3  0  0  0  0  0  0
   36.7096   56.5410   29.5201 C   0  0  0  0  0  3  0  0  0  0  0  0
   36.6605   57.7603   28.8420 C   0  0  0  0  0  3  0  0  0  0  0  0
   37.3301   58.8703   29.1875 N   0  0  0  0  0  2  0  0  0  0  0  0
   36.3679   55.3551   28.7841 C   0  0  0  0  0  3  0  0  0  0  0  0
   36.2326   54.1371   29.2185 N   0  0  0  0  0  2  0  0  0  0  0  0
   35.8455   53.3976   28.1650 N   0  0  0  0  0  2  0  0  0  0  0  0
   35.8530   54.1999   27.1395 C   0  0  0  0  0  3  0  0  0  0  0  0
   35.2609   53.9231   25.7825 C   0  0  0  0  0  0  0  0  0  0  0  0
   36.0198   55.5049   27.4752 O   0  0  0  0  0  0  0  0  0  0  0  0
   37.5582   64.3591   34.8177 N   0  0  0  0  0  2  0  0  0  0  0  0
   37.3267   65.7084   35.0074 C   0  0  0  0  0  3  0  0  0  0  0  0
   39.7691   68.9445   36.2112 H   0  0  0  0  0  0  0  0  0  0  0  0
   39.0034   69.7575   34.8133 H   0  0  0  0  0  0  0  0  0  0  0  0
   38.3662   70.0766   36.4934 H   0  0  0  0  0  0  0  0  0  0  0  0
   40.4593   66.9427   34.4640 H   0  0  0  0  0  0  0  0  0  0  0  0
   38.4322   62.1024   34.7103 H   0  0  0  0  0  0  0  0  0  0  0  0
   40.8179   62.9383   33.0770 H   0  0  0  0  0  0  0  0  0  0  0  0
   41.9060   60.9711   33.7011 H   0  0  0  0  0  0  0  0  0  0  0  0
   40.5753   60.5893   34.6749 H   0  0  0  0  0  0  0  0  0  0  0  0
   41.1198   59.4242   31.9354 H   0  0  0  0  0  0  0  0  0  0  0  0
   40.0501   58.8591   33.2375 H   0  0  0  0  0  0  0  0  0  0  0  0
   38.2755   60.0811   32.6646 H   0  0  0  0  0  0  0  0  0  0  0  0
   39.8593   62.1908   31.2485 H   0  0  0  0  0  0  0  0  0  0  0  0
   38.3601   62.3817   32.0611 H   0  0  0  0  0  0  0  0  0  0  0  0
   38.8459   60.6861   29.9914 H   0  0  0  0  0  0  0  0  0  0  0  0
   38.3493   57.6747   32.2911 H   0  0  0  0  0  0  0  0  0  0  0  0
   37.4393   55.6722   31.2864 H   0  0  0  0  0  0  0  0  0  0  0  0
   36.0389   57.8952   27.9581 H   0  0  0  0  0  0  0  0  0  0  0  0
   34.2566   54.3492   25.6678 H   0  0  0  0  0  0  0  0  0  0  0  0
   35.9127   54.2185   24.9510 H   0  0  0  0  0  0  0  0  0  0  0  0
   35.0632   52.8547   25.6318 H   0  0  0  0  0  0  0  0  0  0  0  0
   36.3299   66.0157   34.6945 H   0  0  0  0  0  0  0  0  0  0  0  0
 26 27  1  0
 23 24  1  0
 23 25  1  0
 22 23  1  0
 21 22  1  0
 20 21  1  0
 20 25  1  0
 18 19  1  0
 17 18  1  0
 17 20  1  0
 16 17  1  0
 15 16  1  0
 14 15  1  0
 14 19  1  0
 13 14  1  0
 11 12  1  0
 11 13  1  0
 10 11  1  0
  9 10  1  0
  8  9  1  0
  8 12  1  0
  7  8  1  0
  6  7  1  0
  6 26  1  0
  5  6  1  0
  4  5  1  0
  3  4  1  0
  3 27  1  0
  2  3  1  0
  1  2  1  0
 27 48  1  0
 24 45  1  0
 24 46  1  0
 24 47  1  0
 18 44  1  0
 16 43  1  0
 15 42  1  0
 13 41  1  0
 12 39  1  0
 12 40  1  0
 11 38  1  1
 10 36  1  0
 10 37  1  0
  9 34  1  0
  9 35  1  0
  8 33  1  6
  7 32  1  0
  4 31  1  0
  1 28  1  0
  1 29  1  0
  1 30  1  0
M  RAD  8   3   2   4   2   6   2  14   2  15   2  16   2  17   2  18   2
M  CHG  5   5  -1  19  -1  21  -1  22  -1  26  -1
M  RAD  3  20   2  23   2  27   2
M  END
>  <_TriposChargeType>  (1) 
USER_CHARGES

$$$$
