@<TRIPOS>MOLECULE
Cpptraj Generated mol2 file.
   48    51     1     0     0
SMALL
USER_CHARGES


@<TRIPOS>ATOM
      1 C1         37.6334   69.5513   36.8502 C.aa         1 L1      -0.190094
      2 S1         36.4268   68.2142   36.7250 S.ab         1 L1      -0.236975
      3 C2         37.1950   66.8285   35.9691 C.ad         1 L1       0.100774
      4 C3         38.6110   66.5711   36.0081 C.ae         1 L1      -0.074232
      5 N1         39.0977   65.5008   35.3590 N.af         1 L1      -0.247283
      6 C4         38.1886   64.6987   34.7514 C.ah         1 L1       0.320380
      7 N2         38.5754   63.5342   34.1532 N.ai         1 L1      -0.565493
      8 C5         39.7655   63.3428   33.3979 C.aj         1 L1       0.128460
      9 C6         40.5837   62.0679   33.7102 C.ak         1 L1      -0.039596
     10 C7         40.8157   61.3800   32.3284 C.an         1 L1      -0.039596
     11 C8         39.4563   61.6767   31.6723 C.ao         1 L1       0.128460
     12 C9         39.2777   63.2246   31.9636 C.ap         1 L1      -0.045711
     13 N3         39.5311   61.2506   30.2974 N.aq         1 L1      -0.561900
     14 C10        38.9342   60.0974   29.7458 C.av         1 L1       0.294025
     15 C11        38.8445   58.8894   30.4544 C.aw         1 L1      -0.204803
     16 C12        38.5838   57.7085   29.7469 C.ax         1 L1      -0.176592
     17 C13        38.2813   57.7700   28.3780 C.ay         1 L1       0.085282
     18 C14        38.3703   59.0848   27.8028 C.az         1 L1      -0.078732
     19 N4         38.7992   60.1770   28.4482 N.bb         1 L1      -0.230041
     20 C15        37.9396   56.5841   27.6420 C.bc         1 L1       0.146530
     21 N5         37.8043   55.3661   28.0764 N.bd         1 L1      -0.194645
     22 N6         37.4172   54.6266   27.0229 N.bf         1 L1      -0.185415
     23 C16        37.4247   55.4289   25.9974 C.bg         1 L1       0.181921
     24 C17        36.8326   55.1521   24.6404 C.bh         1 L1      -0.209191
     25 O1         37.5915   56.7339   26.3331 O.bj         1 L1      -0.229967
     26 N7         36.8475   64.8853   34.6822 N.bk         1 L1      -0.247283
     27 C18        36.3489   65.9902   35.2086 C.bl         1 L1      -0.074232
     28 H1         38.5738   69.1476   37.2454 H.bm         1 L1       0.111765
     29 H2         37.8081   69.9606   35.8475 H.bn         1 L1       0.111765
     30 H3         37.1709   70.2797   37.5276 H.bo         1 L1       0.111765
     31 H4         39.3043   67.1100   36.6521 H.bp         1 L1       0.141257
     32 H5         37.7425   63.1899   33.6927 H.bq         1 L1       0.358866
     33 H6         40.4714   64.1658   33.5645 H.bs         1 L1       0.067580
     34 H7         41.5811   62.2820   34.1137 H.bt         1 L1       0.031452
     35 H8         39.9393   61.6206   34.4771 H.bu         1 L1       0.031452
     36 H9         41.6786   61.8192   31.8128 H.bv         1 L1       0.031452
     37 H10        41.0953   60.3435   32.5540 H.bw         1 L1       0.031452
     38 H11        38.7143   61.0555   32.1891 H.bx         1 L1       0.067580
     39 H12        39.8984   63.8388   31.2997 H.by         1 L1       0.036710
     40 H13        38.2234   63.4597   31.7724 H.bz         1 L1       0.036710
     41 H14        39.7438   61.9186   29.5676 H.cb         1 L1       0.359045
     42 H15        39.1604   58.8594   31.4930 H.ci         1 L1       0.144442
     43 H16        38.5987   56.7695   30.2922 H.cj         1 L1       0.167284
     44 H17        38.2365   59.1910   26.7272 H.ck         1 L1       0.145555
     45 H18        35.8283   55.5782   24.5257 H.cm         1 L1       0.106187
     46 H19        37.4844   55.4475   23.8089 H.cn         1 L1       0.106187
     47 H20        36.6349   54.0837   24.4897 H.ct         1 L1       0.106187
     48 H21        35.3521   66.2975   34.8957 H.cw         1 L1       0.141257
@<TRIPOS>BOND
    1    26    27 1
    2    23    24 1
    3    23    25 1
    4    22    23 1
    5    21    22 1
    6    20    21 1
    7    20    25 1
    8    18    19 1
    9    17    18 1
   10    17    20 1
   11    16    17 1
   12    15    16 1
   13    14    15 1
   14    14    19 1
   15    13    14 1
   16    11    12 1
   17    11    13 1
   18    10    11 1
   19     9    10 1
   20     8     9 1
   21     8    12 1
   22     7     8 1
   23     6     7 1
   24     6    26 1
   25     5     6 1
   26     4     5 1
   27     3     4 1
   28     3    27 1
   29     2     3 1
   30     1     2 1
   31    27    48 1
   32    24    45 1
   33    24    46 1
   34    24    47 1
   35    18    44 1
   36    16    43 1
   37    15    42 1
   38    13    41 1
   39    12    39 1
   40    12    40 1
   41    11    38 1
   42    10    36 1
   43    10    37 1
   44     9    34 1
   45     9    35 1
   46     8    33 1
   47     7    32 1
   48     4    31 1
   49     1    28 1
   50     1    29 1
   51     1    30 1
@<TRIPOS>SUBSTRUCTURE
      1 L1                1 L.****               0 L.****  L.**** 
