XXXX.X
     RDKit          3D

 56 59  0  0  1  0  0  0  0  0999 V2000
  -26.2920   34.2080  -11.0800 C   0  0  0  0  0  0  0  0  0  0  0  0
  -25.6600   33.1630  -10.1630 C   0  0  0  0  0  0  0  0  0  0  0  0
  -24.4580   32.6080  -10.9360 C   0  0  0  0  0  0  0  0  0  0  0  0
  -24.1970   33.5700  -12.0960 C   0  0  0  0  0  0  0  0  0  0  0  0
  -25.1300   34.7660  -11.8930 C   0  0  0  0  0  0  0  0  0  0  0  0
  -24.4580   35.8410  -11.1520 N   0  0  0  0  0  0  0  0  0  0  0  0
  -25.0560   37.1330  -10.9710 C   0  0  0  0  0  0  0  0  0  0  0  0
  -26.3110   37.3830  -11.4380 N   0  0  0  0  0  0  0  0  0  0  0  0
  -26.9130   38.5930  -11.2810 C   0  0  0  0  0  0  0  0  0  0  0  0
  -26.2430   39.6340  -10.6210 C   0  0  0  0  0  0  0  0  0  0  0  0
  -26.8660   40.9240  -10.4550 N   0  0  0  0  0  0  0  0  0  0  0  0
  -28.0300   41.0590   -9.7360 C   0  0  0  0  0  0  0  0  0  0  0  0
  -28.6300   42.3150   -9.5950 C   0  0  0  0  0  0  0  0  0  0  0  0
  -28.0350   43.4310  -10.1810 C   0  0  0  0  0  0  0  0  0  0  0  0
  -26.8520   43.2860  -10.8990 C   0  0  0  0  0  0  0  0  0  0  0  0
  -26.2760   42.0200  -11.0260 C   0  0  0  0  0  0  0  0  0  0  0  0
  -28.5660   40.0610   -9.1810 O   0  0  0  0  0  0  0  0  0  0  0  0
  -24.9470   39.3990  -10.1400 C   0  0  0  0  0  0  0  0  0  0  0  0
  -24.3520   38.1490  -10.3120 C   0  0  0  0  0  0  0  0  0  0  0  0
  -26.6090   32.1050   -9.8010 N   0  0  0  0  0  0  0  0  0  0  0  0
  -26.3400   31.1650   -8.7520 C   0  0  0  0  0  0  0  0  0  0  0  0
  -27.2740   30.2340   -8.4260 N   0  0  0  0  0  0  0  0  0  0  0  0
  -27.0520   29.3290   -7.4380 C   0  0  0  0  0  0  0  0  0  0  0  0
  -25.8360   29.3450   -6.7340 C   0  0  0  0  0  0  0  0  0  0  0  0
  -24.8940   30.3140   -7.0830 C   0  0  0  0  0  0  0  0  0  0  0  0
  -25.1590   31.1990   -8.0780 N   0  0  0  0  0  0  0  0  0  0  0  0
  -25.5290   28.4460   -5.6990 O   0  0  0  0  0  0  0  0  0  0  0  0
  -26.3290   27.3330   -5.2980 C   0  0  0  0  0  0  0  0  0  0  0  0
  -26.1610   26.1750   -6.2870 C   0  0  0  0  0  0  0  0  0  0  0  0
  -25.8980   26.8980   -3.8990 C   0  0  0  0  0  0  0  0  0  0  0  0
  -26.8200   34.9920  -10.4970 H   0  0  0  0  0  0  0  0  0  0  0  0
  -27.0160   33.7310  -11.7780 H   0  0  0  0  0  0  0  0  0  0  0  0
  -25.3050   33.6760   -9.2400 H   0  0  0  0  0  0  0  0  0  0  0  0
  -24.6680   31.5900  -11.3320 H   0  0  0  0  0  0  0  0  0  0  0  0
  -23.5690   32.5540  -10.2710 H   0  0  0  0  0  0  0  0  0  0  0  0
  -23.1290   33.8720  -12.1440 H   0  0  0  0  0  0  0  0  0  0  0  0
  -24.4540   33.0660  -13.0540 H   0  0  0  0  0  0  0  0  0  0  0  0
  -25.4760   35.1490  -12.8790 H   0  0  0  0  0  0  0  0  0  0  0  0
  -23.5130   35.6680  -10.7370 H   0  0  0  0  0  0  0  0  0  0  0  0
  -27.9060   38.7460  -11.6800 H   0  0  0  0  0  0  0  0  0  0  0  0
  -29.5480   42.4270   -9.0310 H   0  0  0  0  0  0  0  0  0  0  0  0
  -28.4910   44.4070  -10.0760 H   0  0  0  0  0  0  0  0  0  0  0  0
  -26.3820   44.1470  -11.3570 H   0  0  0  0  0  0  0  0  0  0  0  0
  -25.3610   41.9190  -11.5970 H   0  0  0  0  0  0  0  0  0  0  0  0
  -24.4040   40.1820   -9.6250 H   0  0  0  0  0  0  0  0  0  0  0  0
  -23.3530   37.9710   -9.9340 H   0  0  0  0  0  0  0  0  0  0  0  0
  -27.5360   32.0490  -10.2800 H   0  0  0  0  0  0  0  0  0  0  0  0
  -27.8250   28.6110   -7.2120 H   0  0  0  0  0  0  0  0  0  0  0  0
  -23.9470   30.3630   -6.5630 H   0  0  0  0  0  0  0  0  0  0  0  0
  -27.4000   27.6290   -5.2400 H   0  0  0  0  0  0  0  0  0  0  0  0
  -26.7750   25.3050   -5.9680 H   0  0  0  0  0  0  0  0  0  0  0  0
  -26.4940   26.4770   -7.3010 H   0  0  0  0  0  0  0  0  0  0  0  0
  -25.0960   25.8660   -6.3440 H   0  0  0  0  0  0  0  0  0  0  0  0
  -26.5180   26.0440   -3.5490 H   0  0  0  0  0  0  0  0  0  0  0  0
  -24.8280   26.5960   -3.8980 H   0  0  0  0  0  0  0  0  0  0  0  0
  -26.0290   27.7400   -3.1870 H   0  0  0  0  0  0  0  0  0  0  0  0
  1  2  1  0
  1  5  1  0
  1 31  1  0
  1 32  1  0
  2  3  1  0
  2 20  1  0
  2 33  1  0
  3  4  1  0
  3 34  1  0
  3 35  1  0
  4  5  1  0
  4 36  1  0
  4 37  1  0
  5  6  1  0
  5 38  1  0
  6  7  1  0
  6 39  1  0
  7  8  2  0
  7 19  1  0
  8  9  1  0
  9 10  2  0
  9 40  1  0
 10 11  1  0
 10 18  1  0
 11 12  1  0
 11 16  1  0
 12 13  1  0
 12 17  2  0
 13 14  2  0
 13 41  1  0
 14 15  1  0
 14 42  1  0
 15 16  2  0
 15 43  1  0
 16 44  1  0
 18 19  2  0
 18 45  1  0
 19 46  1  0
 20 21  1  0
 20 47  1  0
 21 22  2  0
 21 26  1  0
 22 23  1  0
 23 24  2  0
 23 48  1  0
 24 25  1  0
 24 27  1  0
 25 26  2  0
 25 49  1  0
 27 28  1  0
 28 29  1  0
 28 30  1  0
 28 50  1  0
 29 51  1  0
 29 52  1  0
 29 53  1  0
 30 54  1  0
 30 55  1  0
 30 56  1  0
M  END
$$$$
