@<TRIPOS>MOLECULE
XXXX.X
 56 59 0 0 0
SMALL
GASTEIGER

@<TRIPOS>ATOM
      1 C         -26.2920   34.2080  -11.0800 C.3     1  LIG1       -0.0160
      2 C         -25.6600   33.1630  -10.1630 C.3     1  LIG1        0.0251
      3 C         -24.4580   32.6080  -10.9360 C.3     1  LIG1       -0.0328
      4 C         -24.1970   33.5700  -12.0960 C.3     1  LIG1       -0.0328
      5 C         -25.1300   34.7660  -11.8930 C.3     1  LIG1        0.0237
      6 N         -24.4580   35.8410  -11.1520 N.pl3   1  LIG1       -0.3262
      7 C         -25.0560   37.1330  -10.9710 C.ar    1  LIG1        0.1190
      8 N         -26.3110   37.3830  -11.4380 N.ar    1  LIG1       -0.2385
      9 C         -26.9130   38.5930  -11.2810 C.ar    1  LIG1        0.0536
     10 C         -26.2430   39.6340  -10.6210 C.ar    1  LIG1        0.0676
     11 N         -26.8660   40.9240  -10.4550 N.ar    1  LIG1       -0.2827
     12 C         -28.0300   41.0590   -9.7360 C.ar    1  LIG1        0.2557
     13 C         -28.6300   42.3150   -9.5950 C.ar    1  LIG1        0.0033
     14 C         -28.0350   43.4310  -10.1810 C.ar    1  LIG1       -0.0552
     15 C         -26.8520   43.2860  -10.8990 C.ar    1  LIG1       -0.0449
     16 C         -26.2760   42.0200  -11.0260 C.ar    1  LIG1        0.0133
     17 O         -28.5660   40.0610   -9.1810 O.2     1  LIG1       -0.2673
     18 C         -24.9470   39.3990  -10.1400 C.ar    1  LIG1       -0.0330
     19 C         -24.3520   38.1490  -10.3120 C.ar    1  LIG1       -0.0199
     20 N         -26.6090   32.1050   -9.8010 N.pl3   1  LIG1       -0.3106
     21 C         -26.3400   31.1650   -8.7520 C.ar    1  LIG1        0.2155
     22 N         -27.2740   30.2340   -8.4260 N.ar    1  LIG1       -0.2193
     23 C         -27.0520   29.3290   -7.4380 C.ar    1  LIG1        0.0743
     24 C         -25.8360   29.3450   -6.7340 C.ar    1  LIG1        0.1570
     25 C         -24.8940   30.3140   -7.0830 C.ar    1  LIG1        0.0743
     26 N         -25.1590   31.1990   -8.0780 N.ar    1  LIG1       -0.2193
     27 O         -25.5290   28.4460   -5.6990 O.3     1  LIG1       -0.4863
     28 C         -26.3290   27.3330   -5.2980 C.3     1  LIG1        0.0948
     29 C         -26.1610   26.1750   -6.2870 C.3     1  LIG1       -0.0281
     30 C         -25.8980   26.8980   -3.8990 C.3     1  LIG1       -0.0281
     31 H         -26.8200   34.9920  -10.4970 H       1  LIG1        0.0301
     32 H         -27.0160   33.7310  -11.7780 H       1  LIG1        0.0301
     33 H         -25.3050   33.6760   -9.2400 H       1  LIG1        0.0499
     34 H         -24.6680   31.5900  -11.3320 H       1  LIG1        0.0284
     35 H         -23.5690   32.5540  -10.2710 H       1  LIG1        0.0284
     36 H         -23.1290   33.8720  -12.1440 H       1  LIG1        0.0284
     37 H         -24.4540   33.0660  -13.0540 H       1  LIG1        0.0284
     38 H         -25.4760   35.1490  -12.8790 H       1  LIG1        0.0498
     39 H         -23.5130   35.6680  -10.7370 H       1  LIG1        0.1477
     40 H         -27.9060   38.7460  -11.6800 H       1  LIG1        0.0851
     41 H         -29.5480   42.4270   -9.0310 H       1  LIG1        0.0672
     42 H         -28.4910   44.4070  -10.0760 H       1  LIG1        0.0620
     43 H         -26.3820   44.1470  -11.3570 H       1  LIG1        0.0632
     44 H         -25.3610   41.9190  -11.5970 H       1  LIG1        0.0814
     45 H         -24.4040   40.1820   -9.6250 H       1  LIG1        0.0640
     46 H         -23.3530   37.9710   -9.9340 H       1  LIG1        0.0652
     47 H         -27.5360   32.0490  -10.2800 H       1  LIG1        0.1492
     48 H         -27.8250   28.6110   -7.2120 H       1  LIG1        0.0869
     49 H         -23.9470   30.3630   -6.5630 H       1  LIG1        0.0869
     50 H         -27.4000   27.6290   -5.2400 H       1  LIG1        0.0727
     51 H         -26.7750   25.3050   -5.9680 H       1  LIG1        0.0265
     52 H         -26.4940   26.4770   -7.3010 H       1  LIG1        0.0265
     53 H         -25.0960   25.8660   -6.3440 H       1  LIG1        0.0265
     54 H         -26.5180   26.0440   -3.5490 H       1  LIG1        0.0265
     55 H         -24.8280   26.5960   -3.8980 H       1  LIG1        0.0265
     56 H         -26.0290   27.7400   -3.1870 H       1  LIG1        0.0265
@<TRIPOS>BOND
     1     1     2    1
     2     1     5    1
     3     1    31    1
     4     1    32    1
     5     2     3    1
     6     2    20    1
     7     2    33    1
     8     3     4    1
     9     3    34    1
    10     3    35    1
    11     4     5    1
    12     4    36    1
    13     4    37    1
    14     5     6    1
    15     5    38    1
    16     6     7    1
    17     6    39    1
    18     7     8   ar
    19     7    19   ar
    20     8     9   ar
    21     9    10   ar
    22     9    40    1
    23    10    11    1
    24    10    18   ar
    25    11    12   ar
    26    11    16   ar
    27    12    13   ar
    28    12    17    2
    29    13    14   ar
    30    13    41    1
    31    14    15   ar
    32    14    42    1
    33    15    16   ar
    34    15    43    1
    35    16    44    1
    36    18    19   ar
    37    18    45    1
    38    19    46    1
    39    20    21    1
    40    20    47    1
    41    21    22   ar
    42    21    26   ar
    43    22    23   ar
    44    23    24   ar
    45    23    48    1
    46    24    25   ar
    47    24    27    1
    48    25    26   ar
    49    25    49    1
    50    27    28    1
    51    28    29    1
    52    28    30    1
    53    28    50    1
    54    29    51    1
    55    29    52    1
    56    29    53    1
    57    30    54    1
    58    30    55    1
    59    30    56    1
