Cpptraj Generated mol2 file.
     RDKit          3D

 60 63  0  0  0  0  0  0  0  0999 V2000
   36.0572   68.0995   35.5979 C   0  0  0  0  0  0  0  0  0  0  0  0
   37.8399   68.0397   35.8315 S   0  0  0  0  0  0  0  0  0  0  0  0
   38.3903   66.6254   34.9349 C   0  0  0  0  0  3  0  0  0  0  0  0
   37.3267   65.7084   35.0074 C   0  0  0  0  0  3  0  0  0  0  0  0
   37.5582   64.3591   34.8177 N   0  0  0  0  0  2  0  0  0  0  0  0
   38.8881   63.9543   34.6077 C   0  0  0  0  0  3  0  0  0  0  0  0
   39.2226   62.6604   34.4136 N   0  0  0  0  0  0  0  0  0  0  0  0
   40.0887   62.1551   33.3185 C   0  0  1  0  0  0  0  0  0  0  0  0
   40.8214   60.8222   33.6316 C   0  0  0  0  0  0  0  0  0  0  0  0
   40.3470   59.7359   32.6488 C   0  0  0  0  0  0  0  0  0  0  0  0
   39.1011   60.3496   31.9940 C   0  0  1  0  0  0  0  0  0  0  0  0
   39.2970   61.8133   32.1115 C   0  0  0  0  0  0  0  0  0  0  0  0
   38.8212   59.9135   30.6445 N   0  0  0  0  0  0  0  0  0  0  0  0
   38.0553   58.7801   30.3847 C   0  0  0  0  0  3  0  0  0  0  0  0
   38.2363   57.8628   29.5160 N   0  0  0  0  0  2  0  0  0  0  0  0
   37.0423   57.5218   29.0543 C   0  0  0  0  0  3  0  0  0  0  0  0
   35.9791   58.1898   29.6350 C   0  0  0  0  0  3  0  0  0  0  0  0
   36.3884   59.3283   30.7761 S   0  0  0  0  0  0  0  0  0  0  0  0
   34.7002   57.9148   29.1573 C   0  0  0  0  0  3  0  0  0  0  0  0
   34.4754   56.8591   28.2549 C   0  0  0  0  0  3  0  0  0  0  0  0
   35.5283   56.1154   27.7297 C   0  0  0  0  0  3  0  0  0  0  0  0
   36.8200   56.4519   28.1483 C   0  0  0  0  0  3  0  0  0  0  0  0
   33.0182   56.5381   28.0350 C   0  0  0  0  0  3  0  0  0  0  0  0
   32.1546   56.9132   28.8369 O   0  0  0  0  0  1  0  0  0  0  0  0
   32.7372   55.8038   26.8084 N   0  0  0  0  0  0  0  0  0  0  0  0
   31.4461   55.9606   26.1959 O   0  0  0  0  0  0  0  0  0  0  0  0
   30.7183   54.6749   26.0506 C   0  0  0  0  0  0  0  0  0  0  0  0
   30.4765   54.1217   27.5344 C   0  0  0  0  0  0  0  0  0  0  0  0
   31.5954   53.6666   25.2582 C   0  0  0  0  0  0  0  0  0  0  0  0
   29.4113   55.0600   25.2946 C   0  0  0  0  0  0  0  0  0  0  0  0
   39.9245   64.8643   34.4928 N   0  0  0  0  0  2  0  0  0  0  0  0
   39.6860   66.1896   34.6078 C   0  0  0  0  0  3  0  0  0  0  0  0
   35.7800   68.9412   36.2446 H   0  0  0  0  0  0  0  0  0  0  0  0
   35.9137   68.1587   34.5119 H   0  0  0  0  0  0  0  0  0  0  0  0
   35.5250   67.2494   36.0422 H   0  0  0  0  0  0  0  0  0  0  0  0
   36.3721   65.7055   35.5315 H   0  0  0  0  0  0  0  0  0  0  0  0
   38.4322   62.1024   34.7103 H   0  0  0  0  0  0  0  0  0  0  0  0
   40.8179   62.9383   33.0770 H   0  0  0  0  0  0  0  0  0  0  0  0
   41.9060   60.9711   33.7011 H   0  0  0  0  0  0  0  0  0  0  0  0
   40.5753   60.5893   34.6749 H   0  0  0  0  0  0  0  0  0  0  0  0
   41.1198   59.4242   31.9354 H   0  0  0  0  0  0  0  0  0  0  0  0
   40.0501   58.8591   33.2375 H   0  0  0  0  0  0  0  0  0  0  0  0
   38.2755   60.0811   32.6646 H   0  0  0  0  0  0  0  0  0  0  0  0
   39.8593   62.1908   31.2485 H   0  0  0  0  0  0  0  0  0  0  0  0
   38.3601   62.3817   32.0611 H   0  0  0  0  0  0  0  0  0  0  0  0
   38.8459   60.6861   29.9914 H   0  0  0  0  0  0  0  0  0  0  0  0
   33.8489   58.3518   29.6709 H   0  0  0  0  0  0  0  0  0  0  0  0
   35.5614   55.1346   27.2648 H   0  0  0  0  0  0  0  0  0  0  0  0
   37.7213   55.9197   27.8589 H   0  0  0  0  0  0  0  0  0  0  0  0
   33.4708   55.7832   26.1101 H   0  0  0  0  0  0  0  0  0  0  0  0
   29.8661   54.8112   28.1306 H   0  0  0  0  0  0  0  0  0  0  0  0
   30.0010   53.1376   27.4401 H   0  0  0  0  0  0  0  0  0  0  0  0
   31.3418   53.9748   28.1925 H   0  0  0  0  0  0  0  0  0  0  0  0
   32.5225   53.3361   25.7425 H   0  0  0  0  0  0  0  0  0  0  0  0
   30.9372   52.7899   25.2158 H   0  0  0  0  0  0  0  0  0  0  0  0
   31.7194   53.9252   24.1993 H   0  0  0  0  0  0  0  0  0  0  0  0
   28.8324   55.8021   25.8582 H   0  0  0  0  0  0  0  0  0  0  0  0
   29.6443   55.2958   24.2489 H   0  0  0  0  0  0  0  0  0  0  0  0
   28.7382   54.2027   25.1704 H   0  0  0  0  0  0  0  0  0  0  0  0
   40.4593   66.9427   34.4640 H   0  0  0  0  0  0  0  0  0  0  0  0
 31 32  1  0
 27 28  1  0
 27 29  1  0
 27 30  1  0
 26 27  1  0
 25 26  1  0
 23 24  1  0
 23 25  1  0
 21 22  1  0
 20 21  1  0
 20 23  1  0
 19 20  1  0
 17 18  1  0
 17 19  1  0
 16 17  1  0
 16 22  1  0
 15 16  1  0
 14 15  1  0
 14 18  1  0
 13 14  1  0
 11 12  1  0
 11 13  1  0
 10 11  1  0
  9 10  1  0
  8  9  1  0
  8 12  1  0
  7  8  1  0
  6  7  1  0
  6 31  1  0
  5  6  1  0
  4  5  1  0
  3  4  1  0
  3 32  1  0
  2  3  1  0
  1  2  1  0
 32 60  1  0
 30 57  1  0
 30 58  1  0
 30 59  1  0
 29 54  1  0
 29 55  1  0
 29 56  1  0
 28 51  1  0
 28 52  1  0
 28 53  1  0
 25 50  1  0
 22 49  1  0
 21 48  1  0
 19 47  1  0
 13 46  1  0
 12 44  1  0
 12 45  1  0
 11 43  1  1
 10 41  1  0
 10 42  1  0
  9 39  1  0
  9 40  1  0
  8 38  1  6
  7 37  1  0
  4 36  1  0
  1 33  1  0
  1 34  1  0
  1 35  1  0
M  RAD  8   3   2   4   2   6   2  14   2  16   2  17   2  19   2  20   2
M  CHG  4   5  -1  15  -1  24  -1  31  -1
M  RAD  4  21   2  22   2  23   2  32   2
M  END
>  <_TriposChargeType>  (1) 
USER_CHARGES

$$$$
