@<TRIPOS>MOLECULE
Cpptraj Generated mol2 file.
   60    63     1     0     0
SMALL
USER_CHARGES


@<TRIPOS>ATOM
      1 C1         30.3438   67.2932   36.6752 C.aa         1 L1      -0.190051
      2 S1         32.1265   67.2334   36.9088 S.ab         1 L1      -0.237338
      3 C2         32.6769   65.8191   36.0122 C.ad         1 L1       0.100717
      4 C3         31.8028   64.7801   35.6445 C.ae         1 L1      -0.074088
      5 N1         32.2067   63.6747   34.9937 N.af         1 L1      -0.247397
      6 C4         33.4752   63.5968   34.6786 C.ah         1 L1       0.320489
      7 N2         33.9789   62.3322   34.5138 N.ai         1 L1      -0.564229
      8 C5         35.0812   61.9948   33.5990 C.aj         1 L1       0.125218
      9 C6         35.8211   60.8625   34.2594 C.ak         1 L1      -0.039150
     10 C7         35.7639   59.7631   33.1161 C.an         1 L1      -0.039150
     11 C8         34.5242   60.0463   32.3300 C.ao         1 L1       0.126453
     12 C9         34.5844   61.5527   32.2578 C.ap         1 L1      -0.048271
     13 N3         34.5782   59.4018   31.0386 N.aq         1 L1      -0.492557
     14 C10        33.4716   58.8929   30.4080 C.av         1 L1       0.226872
     15 N4         33.6526   57.9756   29.5393 N.aw         1 L1      -0.255877
     16 C11        32.4586   57.6346   29.0776 C.ax         1 L1       0.124616
     17 C12        31.3954   58.3026   29.6583 C.ay         1 L1       0.079654
     18 S2         31.8047   59.4411   30.7994 S.az         1 L1      -0.145159
     19 C13        30.1165   58.0276   29.1806 C.bb         1 L1      -0.262075
     20 C14        29.8917   56.9719   28.2782 C.bc         1 L1       0.005335
     21 C15        30.9446   56.2282   27.7530 C.bd         1 L1      -0.187114
     22 C16        32.2363   56.5647   28.1716 C.bf         1 L1      -0.206403
     23 C17        28.4345   56.6509   28.0583 C.bg         1 L1       0.662114
     24 O1         27.5709   57.0260   28.8602 O.bh         1 L1      -0.580657
     25 N5         28.1535   55.9166   26.8317 N.bj         1 L1      -0.419125
     26 O2         26.8624   56.0734   26.2192 O.bk         1 L1      -0.270164
     27 C18        26.1346   54.7877   26.0739 C.bl         1 L1       0.463904
     28 C19        25.8928   54.2345   27.5577 C.bm         1 L1      -0.305914
     29 C20        27.0117   53.7794   25.2815 C.bn         1 L1      -0.305914
     30 C21        24.8276   55.1728   25.3179 C.bo         1 L1      -0.305914
     31 N6         34.4542   64.4709   35.0565 N.bp         1 L1      -0.247397
     32 C22        34.0490   65.5981   35.6313 C.bq         1 L1      -0.074088
     33 H1         30.0666   68.1349   37.3219 H.bs         1 L1       0.111704
     34 H2         30.2003   67.3524   35.5892 H.bt         1 L1       0.111704
     35 H3         29.8116   66.4431   37.1195 H.bu         1 L1       0.111704
     36 H4         30.8482   64.7772   36.1686 H.bv         1 L1       0.141205
     37 H5         33.2474   61.6345   34.5618 H.bw         1 L1       0.359633
     38 H6         35.7576   62.8438   33.4406 H.bx         1 L1       0.084135
     39 H7         36.8088   61.2369   34.5555 H.by         1 L1       0.033304
     40 H8         35.3296   60.4944   35.1684 H.bz         1 L1       0.033304
     41 H9         36.6224   59.8989   32.4469 H.cb         1 L1       0.033304
     42 H10        35.9230   58.7517   33.5100 H.ci         1 L1       0.033304
     43 H11        33.6588   59.6908   32.9028 H.cj         1 L1       0.079103
     44 H12        35.3777   61.7369   31.5229 H.ck         1 L1       0.038637
     45 H13        33.6274   61.9041   31.8529 H.cm         1 L1       0.038637
     46 H14        35.3855   58.7996   30.9397 H.cn         1 L1       0.356455
     47 H15        29.2652   58.4646   29.6942 H.ct         1 L1       0.143595
     48 H16        30.9777   55.2474   27.2881 H.cw         1 L1       0.173769
     49 H17        33.1376   56.0325   27.8822 H.da         1 L1       0.163991
     50 H18        28.8871   55.8960   26.1334 H.db         1 L1       0.331553
     51 H19        25.2824   54.9240   28.1539 H.dc         1 L1       0.082490
     52 H20        25.4173   53.2504   27.4634 H.dd         1 L1       0.082490
     53 H21        26.7581   54.0876   28.2158 H.de         1 L1       0.082490
     54 H22        27.9388   53.4489   25.7658 H.df         1 L1       0.082490
     55 H23        26.3535   52.9027   25.2391 H.dg         1 L1       0.082490
     56 H24        27.1357   54.0380   24.2226 H.dh         1 L1       0.082490
     57 H25        24.2487   55.9149   25.8815 H.di         1 L1       0.082490
     58 H26        25.0606   55.4086   24.2722 H.dj         1 L1       0.082490
     59 H27        24.1545   54.3155   25.1937 H.dk         1 L1       0.082490
     60 H28        34.8204   66.2072   36.1002 H.dl         1 L1       0.141205
@<TRIPOS>BOND
    1    31    32 1
    2    27    28 1
    3    27    29 1
    4    27    30 1
    5    26    27 1
    6    25    26 1
    7    23    24 1
    8    23    25 1
    9    21    22 1
   10    20    21 1
   11    20    23 1
   12    19    20 1
   13    17    18 1
   14    17    19 1
   15    16    17 1
   16    16    22 1
   17    15    16 1
   18    14    15 1
   19    14    18 1
   20    13    14 1
   21    11    12 1
   22    11    13 1
   23    10    11 1
   24     9    10 1
   25     8     9 1
   26     8    12 1
   27     7     8 1
   28     6     7 1
   29     6    31 1
   30     5     6 1
   31     4     5 1
   32     3     4 1
   33     3    32 1
   34     2     3 1
   35     1     2 1
   36    32    60 1
   37    30    57 1
   38    30    58 1
   39    30    59 1
   40    29    54 1
   41    29    55 1
   42    29    56 1
   43    28    51 1
   44    28    52 1
   45    28    53 1
   46    25    50 1
   47    22    49 1
   48    21    48 1
   49    19    47 1
   50    13    46 1
   51    12    44 1
   52    12    45 1
   53    11    43 1
   54    10    41 1
   55    10    42 1
   56     9    39 1
   57     9    40 1
   58     8    38 1
   59     7    37 1
   60     4    36 1
   61     1    33 1
   62     1    34 1
   63     1    35 1
@<TRIPOS>SUBSTRUCTURE
      1 L1                1 L.****               0 L.****  L.**** 
