Cpptraj Generated mol2 file.
     RDKit          3D

 44 46  0  0  0  0  0  0  0  0999 V2000
   35.7997   55.1091   27.8473 C   0  0  0  0  0  0  0  0  0  0  0  0
   36.0211   55.4673   29.1389 S   0  0  0  0  0  0  0  0  0  0  0  0
   36.7096   56.5410   29.5201 C   0  0  0  0  0  3  0  0  0  0  0  0
   37.4244   56.6112   30.7411 C   0  0  0  0  0  3  0  0  0  0  0  0
   38.0334   57.7047   31.2525 N   0  0  0  0  0  2  0  0  0  0  0  0
   38.0553   58.7801   30.3847 C   0  0  0  0  0  3  0  0  0  0  0  0
   38.8212   59.9135   30.6445 N   0  0  0  0  0  0  0  0  0  0  0  0
   39.3017   60.0018   32.0502 C   0  0  0  0  0  0  0  0  0  0  0  0
   40.2950   61.2245   32.3313 C   0  0  1  0  0  0  0  0  0  0  0  0
   41.4422   61.1997   31.2201 C   0  0  0  0  0  0  0  0  0  0  0  0
   39.5577   62.5696   32.3686 C   0  0  0  0  0  0  0  0  0  0  0  0
   38.8932   62.6561   33.6454 N   0  0  0  0  0  0  0  0  0  0  0  0
   39.0147   63.7430   34.4075 C   0  0  0  0  0  3  0  0  0  0  0  0
   40.1263   64.6211   34.4465 C   0  0  0  0  0  3  0  0  0  0  0  0
   40.0498   65.8437   35.0557 N   0  0  0  0  0  2  0  0  0  0  0  0
   38.8307   66.1623   35.5449 C   0  0  0  0  0  3  0  0  0  0  0  0
   38.7015   67.5088   36.0552 C   0  0  0  0  0  3  0  0  0  0  0  0
   37.5098   67.9361   36.6687 C   0  0  0  0  0  3  0  0  0  0  0  0
   36.4745   67.0232   36.7350 C   0  0  0  0  0  3  0  0  0  0  0  0
   36.6104   65.7353   36.2874 C   0  0  0  0  0  3  0  0  0  0  0  0
   37.7527   65.2692   35.5919 C   0  0  0  0  0  3  0  0  0  0  0  0
   37.8496   64.0943   34.9644 N   0  0  0  0  0  2  0  0  0  0  0  0
   37.3301   58.8703   29.1875 N   0  0  0  0  0  2  0  0  0  0  0  0
   36.6605   57.7603   28.8420 C   0  0  0  0  0  3  0  0  0  0  0  0
   36.2388   55.8409   27.1581 H   0  0  0  0  0  0  0  0  0  0  0  0
   35.4786   55.9427   27.2105 H   0  0  0  0  0  0  0  0  0  0  0  0
   34.9070   55.4241   28.4016 H   0  0  0  0  0  0  0  0  0  0  0  0
   37.4606   55.6656   31.2802 H   0  0  0  0  0  0  0  0  0  0  0  0
   38.8459   60.6861   29.9914 H   0  0  0  0  0  0  0  0  0  0  0  0
   38.4190   60.1626   32.6814 H   0  0  0  0  0  0  0  0  0  0  0  0
   39.8303   59.0790   32.3191 H   0  0  0  0  0  0  0  0  0  0  0  0
   40.7617   61.1468   33.3210 H   0  0  0  0  0  0  0  0  0  0  0  0
   42.1226   60.3487   31.3478 H   0  0  0  0  0  0  0  0  0  0  0  0
   41.0528   61.3206   30.2017 H   0  0  0  0  0  0  0  0  0  0  0  0
   42.0509   62.0673   31.5033 H   0  0  0  0  0  0  0  0  0  0  0  0
   40.1709   63.4792   32.3679 H   0  0  0  0  0  0  0  0  0  0  0  0
   38.8806   62.7651   31.5280 H   0  0  0  0  0  0  0  0  0  0  0  0
   38.0573   62.0894   33.7093 H   0  0  0  0  0  0  0  0  0  0  0  0
   41.1213   64.3893   34.0694 H   0  0  0  0  0  0  0  0  0  0  0  0
   39.4974   68.2320   35.9040 H   0  0  0  0  0  0  0  0  0  0  0  0
   37.4685   68.9129   37.1417 H   0  0  0  0  0  0  0  0  0  0  0  0
   35.5421   67.3045   37.2154 H   0  0  0  0  0  0  0  0  0  0  0  0
   35.7266   65.1049   36.3168 H   0  0  0  0  0  0  0  0  0  0  0  0
   36.0389   57.8952   27.9581 H   0  0  0  0  0  0  0  0  0  0  0  0
 23 24  1  0
 21 22  1  0
 20 21  1  0
 19 20  1  0
 18 19  1  0
 17 18  1  0
 16 17  1  0
 16 21  1  0
 15 16  1  0
 14 15  1  0
 13 14  1  0
 13 22  1  0
 12 13  1  0
 11 12  1  0
  9 10  1  0
  9 11  1  0
  8  9  1  0
  7  8  1  0
  6  7  1  0
  6 23  1  0
  5  6  1  0
  4  5  1  0
  3  4  1  0
  3 24  1  0
  2  3  1  0
  1  2  1  0
 24 44  1  0
 20 43  1  0
 19 42  1  0
 18 41  1  0
 17 40  1  0
 14 39  1  0
 12 38  1  0
 11 36  1  0
 11 37  1  0
 10 33  1  0
 10 34  1  0
 10 35  1  0
  9 32  1  1
  8 30  1  0
  8 31  1  0
  7 29  1  0
  4 28  1  0
  1 25  1  0
  1 26  1  0
  1 27  1  0
M  RAD  8   3   2   4   2   6   2  13   2  14   2  16   2  17   2  18   2
M  CHG  4   5  -1  15  -1  22  -1  23  -1
M  RAD  4  19   2  20   2  21   2  24   2
M  END
>  <_TriposChargeType>  (1) 
USER_CHARGES

$$$$
