@<TRIPOS>MOLECULE
Cpptraj Generated mol2 file.
   44    46     1     0     0
SMALL
USER_CHARGES


@<TRIPOS>ATOM
      1 C1         36.0749   52.6881   24.9802 C.aa         1 L1      -0.189838
      2 S1         37.3799   52.1080   26.0459 S.ab         1 L1      -0.237578
      3 C2         38.0752   53.5576   26.9037 C.ad         1 L1       0.100708
      4 C3         38.7316   53.4456   28.1843 C.ae         1 L1      -0.074396
      5 N1         39.2102   54.5543   28.7668 N.af         1 L1      -0.246841
      6 C4         39.0674   55.7199   28.1130 C.ah         1 L1       0.320476
      7 N2         39.5258   56.8230   28.6918 N.ai         1 L1      -0.555878
      8 C5         40.0063   56.9113   30.0975 C.aj         1 L1       0.055647
      9 C6         40.9996   58.1340   30.3786 C.ak         1 L1       0.133111
     10 C7         42.1468   58.1092   29.2674 C.an         1 L1      -0.290047
     11 C8         40.2623   59.4791   30.4159 C.ao         1 L1       0.055647
     12 N3         39.5978   59.5656   31.6927 N.ap         1 L1      -0.561943
     13 C9         39.7193   60.6525   32.4548 C.aq         1 L1       0.257453
     14 C10        40.8309   61.5306   32.4938 C.av         1 L1      -0.083671
     15 N4         40.7544   62.7532   33.1030 N.aw         1 L1      -0.182995
     16 C11        39.5353   63.0718   33.5922 C.ax         1 L1       0.082076
     17 C12        39.4061   64.4183   34.1025 C.ay         1 L1      -0.179458
     18 C13        38.2144   64.8456   34.7160 C.az         1 L1      -0.140798
     19 C14        37.1791   63.9327   34.7823 C.bb         1 L1      -0.140798
     20 C15        37.3150   62.6448   34.3347 C.bc         1 L1      -0.179458
     21 C16        38.4573   62.1787   33.6392 C.bd         1 L1       0.082076
     22 N5         38.5542   61.0038   33.0117 N.bf         1 L1      -0.252842
     23 N6         38.4360   55.9807   26.9640 N.bg         1 L1      -0.246841
     24 C17        37.8768   54.8455   26.3500 C.bh         1 L1      -0.074396
     25 H1         36.5140   53.4199   24.2910 H.bj         1 L1       0.111568
     26 H2         35.8491   51.8683   24.2871 H.bk         1 L1       0.111568
     27 H3         35.1822   53.0031   25.5345 H.bl         1 L1       0.111568
     28 H4         38.8762   52.4966   28.6985 H.bm         1 L1       0.140807
     29 H5         39.0664   57.6753   28.3974 H.bn         1 L1       0.356964
     30 H6         39.1236   57.0721   30.7287 H.bo         1 L1       0.063377
     31 H7         40.5349   55.9885   30.3664 H.bp         1 L1       0.063377
     32 H8         41.4663   58.0563   31.3683 H.bq         1 L1       0.010873
     33 H9         42.8272   57.2582   29.3951 H.bs         1 L1       0.075728
     34 H10        41.7574   58.2301   28.2490 H.bt         1 L1       0.075728
     35 H11        42.7555   58.9768   29.5506 H.bu         1 L1       0.075728
     36 H12        40.8755   60.3887   30.4152 H.bv         1 L1       0.063377
     37 H13        39.5852   59.6746   29.5753 H.bw         1 L1       0.063377
     38 H14        38.7619   58.9989   31.7566 H.bx         1 L1       0.354601
     39 H15        41.8259   61.2988   32.1167 H.by         1 L1       0.132068
     40 H16        40.2020   65.1415   33.9513 H.bz         1 L1       0.155869
     41 H17        38.1731   65.8224   35.1890 H.cb         1 L1       0.143665
     42 H18        36.2467   64.2140   35.2627 H.ci         1 L1       0.143665
     43 H19        36.4312   62.0144   34.3641 H.cj         1 L1       0.155869
     44 H20        37.4226   55.0192   25.3756 H.ck         1 L1       0.140807
@<TRIPOS>BOND
    1    23    24 1
    2    21    22 1
    3    20    21 1
    4    19    20 1
    5    18    19 1
    6    17    18 1
    7    16    17 1
    8    16    21 1
    9    15    16 1
   10    14    15 1
   11    13    14 1
   12    13    22 1
   13    12    13 1
   14    11    12 1
   15     9    10 1
   16     9    11 1
   17     8     9 1
   18     7     8 1
   19     6     7 1
   20     6    23 1
   21     5     6 1
   22     4     5 1
   23     3     4 1
   24     3    24 1
   25     2     3 1
   26     1     2 1
   27    24    44 1
   28    20    43 1
   29    19    42 1
   30    18    41 1
   31    17    40 1
   32    14    39 1
   33    12    38 1
   34    11    36 1
   35    11    37 1
   36    10    33 1
   37    10    34 1
   38    10    35 1
   39     9    32 1
   40     8    30 1
   41     8    31 1
   42     7    29 1
   43     4    28 1
   44     1    25 1
   45     1    26 1
   46     1    27 1
@<TRIPOS>SUBSTRUCTURE
      1 L1                1 L.****               0 L.****  L.**** 
