
     RDKit          3D

 56 58  0  0  0  0  0  0  0  0999 V2000
  -25.4310   21.2959   -4.7137 C   0  0  0  0  0  0  0  0  0  0  0  0
  -26.1723   22.2655   -4.0084 O   0  0  0  0  0  0  0  0  0  0  0  0
  -26.4665   23.3460   -4.8691 C   0  0  0  0  0  0  0  0  0  0  0  0
  -27.1705   24.4490   -4.0795 C   0  0  0  0  0  0  0  0  0  0  0  0
  -27.1783   25.7116   -4.8200 N   0  0  0  0  0  0  0  0  0  0  0  0
  -26.2036   26.7334   -4.5577 C   0  0  0  0  0  0  0  0  0  0  0  0
  -25.4233   26.6093   -3.5738 O   0  0  0  0  0  0  0  0  0  0  0  0
  -26.1084   27.9420   -5.4114 C   0  0  0  0  0  0  0  0  0  0  0  0
  -26.4922   27.9044   -6.7708 C   0  0  0  0  0  0  0  0  0  0  0  0
  -26.3752   29.0670   -7.5270 C   0  0  0  0  0  0  0  0  0  0  0  0
  -25.8911   30.2492   -6.9929 C   0  0  0  0  0  0  0  0  0  0  0  0
  -25.4970   30.3080   -5.6577 C   0  0  0  0  0  0  0  0  0  0  0  0
  -25.6030   29.1505   -4.8686 C   0  0  0  0  0  0  0  0  0  0  0  0
  -25.8316   31.2952   -7.8561 N   0  0  0  0  0  0  0  0  0  0  0  0
  -26.2732   30.9306   -9.0842 C   0  0  0  0  0  0  0  0  0  0  0  0
  -26.3186   31.8413  -10.1851 N   0  0  0  0  0  0  0  0  0  0  0  0
  -25.6676   33.1490  -10.1283 C   0  0  0  0  0  0  0  0  0  0  0  0
  -26.2741   34.1103  -11.1627 C   0  0  0  0  0  0  0  0  0  0  0  0
  -27.3161   35.0455  -10.5308 C   0  0  0  0  0  0  0  0  0  0  0  0
  -25.1663   34.8465  -11.9397 C   0  0  0  0  0  0  0  0  0  0  0  0
  -24.3864   35.7277  -11.0757 N   0  0  0  0  0  0  0  0  0  0  0  0
  -24.6572   37.1315  -10.9729 C   0  0  0  0  0  0  0  0  0  0  0  0
  -25.4434   37.7598  -11.8902 N   0  0  0  0  0  0  0  0  0  0  0  0
  -25.6996   39.0903  -11.8012 C   0  0  0  0  0  0  0  0  0  0  0  0
  -25.1501   39.8352  -10.7572 C   0  0  0  0  0  0  0  0  0  0  0  0
  -25.4707   41.5941  -10.6161 S   0  0  0  0  0  0  0  0  0  0  0  0
  -24.7047   41.9850  -12.2197 C   0  0  0  0  0  0  0  0  0  0  0  0
  -24.3349   39.1810   -9.8327 C   0  0  0  0  0  0  0  0  0  0  0  0
  -24.1041   37.8483   -9.9577 N   0  0  0  0  0  0  0  0  0  0  0  0
  -26.7518   29.3031   -9.1460 S   0  0  0  0  0  0  0  0  0  0  0  0
  -24.7650   21.7909   -5.4204 H   0  0  0  0  0  0  0  0  0  0  0  0
  -24.8420   20.7067   -4.0109 H   0  0  0  0  0  0  0  0  0  0  0  0
  -26.1130   20.6404   -5.2554 H   0  0  0  0  0  0  0  0  0  0  0  0
  -25.4990   23.7276   -5.1956 H   0  0  0  0  0  0  0  0  0  0  0  0
  -27.1711   22.9499   -5.6003 H   0  0  0  0  0  0  0  0  0  0  0  0
  -28.2169   24.1586   -3.9845 H   0  0  0  0  0  0  0  0  0  0  0  0
  -26.5738   24.6365   -3.1868 H   0  0  0  0  0  0  0  0  0  0  0  0
  -27.8750   25.8823   -5.5311 H   0  0  0  0  0  0  0  0  0  0  0  0
  -26.8728   26.9918   -7.2294 H   0  0  0  0  0  0  0  0  0  0  0  0
  -25.1142   31.2390   -5.2398 H   0  0  0  0  0  0  0  0  0  0  0  0
  -25.2900   29.1904   -3.8252 H   0  0  0  0  0  0  0  0  0  0  0  0
  -26.8182   31.5566  -11.0155 H   0  0  0  0  0  0  0  0  0  0  0  0
  -25.8978   33.5475   -9.1402 H   0  0  0  0  0  0  0  0  0  0  0  0
  -24.6314   32.9725  -10.4170 H   0  0  0  0  0  0  0  0  0  0  0  0
  -26.8285   33.5247  -11.8961 H   0  0  0  0  0  0  0  0  0  0  0  0
  -27.2480   34.9843   -9.4447 H   0  0  0  0  0  0  0  0  0  0  0  0
  -27.1254   36.0702  -10.8497 H   0  0  0  0  0  0  0  0  0  0  0  0
  -28.3143   34.7455  -10.8497 H   0  0  0  0  0  0  0  0  0  0  0  0
  -24.4622   34.0919  -12.2901 H   0  0  0  0  0  0  0  0  0  0  0  0
  -25.6577   35.5069  -12.6542 H   0  0  0  0  0  0  0  0  0  0  0  0
  -23.6276   35.3504  -10.5262 H   0  0  0  0  0  0  0  0  0  0  0  0
  -26.3361   39.5529  -12.5556 H   0  0  0  0  0  0  0  0  0  0  0  0
  -25.4744   42.0218  -12.9907 H   0  0  0  0  0  0  0  0  0  0  0  0
  -24.2059   42.9522  -12.1579 H   0  0  0  0  0  0  0  0  0  0  0  0
  -23.9751   41.2153  -12.4711 H   0  0  0  0  0  0  0  0  0  0  0  0
  -23.8731   39.7170   -9.0035 H   0  0  0  0  0  0  0  0  0  0  0  0
  1  2  1  0
  2  3  1  0
  3  4  1  0
  4  5  1  0
  5  6  1  0
  6  7  2  0
  6  8  1  0
  8  9  2  0
  9 10  1  0
 10 11  2  0
 11 12  1  0
 12 13  2  0
  8 13  1  0
 11 14  1  0
 14 15  2  0
 15 16  1  0
 16 17  1  0
 18 17  1  0
 18 19  1  0
 18 20  1  0
 20 21  1  0
 21 22  1  0
 22 23  2  0
 23 24  1  0
 24 25  2  0
 25 26  1  0
 26 27  1  0
 25 28  1  0
 28 29  2  0
 22 29  1  0
 15 30  1  0
 10 30  1  0
  1 31  1  0
  1 32  1  0
  1 33  1  0
  3 34  1  0
  3 35  1  0
  4 36  1  0
  4 37  1  0
  5 38  1  0
  9 39  1  0
 12 40  1  0
 13 41  1  0
 16 42  1  0
 17 43  1  0
 17 44  1  0
 18 45  1  0
 19 46  1  0
 19 47  1  0
 19 48  1  0
 20 49  1  0
 20 50  1  0
 21 51  1  0
 24 52  1  0
 27 53  1  0
 27 54  1  0
 27 55  1  0
 28 56  1  0
M  END
>  <21666828|PCSK9_Human_KD_nM_PREFIX|1>  (1) 
>=

>  <21666828|PCSK9_Human_KD_nM_REMARKS|1>  (1) 
Range >= 200 nM to < 2000 nM

>  <21666828|PCSK9_Human_KD_nM|1>  (1) 
200

>  <CHROM.1>  (1) 
-175.43120231,164.93396689,-97.70932974,-28.27459174,11.43392216,-158.95021118
98.32879778,-65.15801713,-97.07383675,-15.07129087,-61.20972038

>  <COMPOUND_ID>  (1) 
Example_14

>  <EmbedRMS>  (1) 
0.0752871484137184

>  <GVK_ID>  (1) 
124889460

>  <ISOMER>  (1) 
None

>  <Kd_Range>  (1) 
>= 200

>  <Name>  (1) 


>  <PAGE>  (1) 
56

>  <REFERENCE>  (1) 
WO 2020/150474 A1

>  <REF_ID>  (1) 
2133368

>  <RI>  (1) 
3.2779e+07

>  <Rbt.Current_Directory>  (1) 
/dev/shm/dwight/Example-14

>  <Rbt.Executable>  (1) 
rbdock ($Id: //depot/dev/client3/rdock/2013.1/src/exe/rbdock.cxx#4 $)

>  <Rbt.Library>  (1) 
libRbt.so (2013.1, Build901 2013/11/27)

>  <Rbt.Parameter_File>  (1) 
dock.prm

>  <Rbt.Receptor>  (1) 
receptor.prm

>  <SCORE>  (1) 
38.8216

>  <SCORE.INTER>  (1) 
29.7058

>  <SCORE.INTER.CONST>  (1) 
1

>  <SCORE.INTER.POLAR>  (1) 
-1.6884

>  <SCORE.INTER.REPUL>  (1) 
0

>  <SCORE.INTER.ROT>  (1) 
11

>  <SCORE.INTER.VDW>  (1) 
19.0464

>  <SCORE.INTER.norm>  (1) 
0.990195

>  <SCORE.INTRA>  (1) 
9.11581

>  <SCORE.INTRA.DIHEDRAL>  (1) 
7.75843

>  <SCORE.INTRA.DIHEDRAL.0>  (1) 
12.8795

>  <SCORE.INTRA.POLAR>  (1) 
0

>  <SCORE.INTRA.POLAR.0>  (1) 
0

>  <SCORE.INTRA.REPUL>  (1) 
0

>  <SCORE.INTRA.REPUL.0>  (1) 
0

>  <SCORE.INTRA.VDW>  (1) 
5.23659

>  <SCORE.INTRA.VDW.0>  (1) 
6.2104

>  <SCORE.INTRA.norm>  (1) 
0.30386

>  <SCORE.RESTR>  (1) 
0

>  <SCORE.RESTR.CAVITY>  (1) 
0

>  <SCORE.RESTR.norm>  (1) 
0

>  <SCORE.SYSTEM>  (1) 
0

>  <SCORE.SYSTEM.CONST>  (1) 
0

>  <SCORE.SYSTEM.DIHEDRAL>  (1) 
0

>  <SCORE.SYSTEM.norm>  (1) 
0

>  <SCORE.heavy>  (1) 
30

>  <SCORE.norm>  (1) 
1.29405

>  <TETHERED ATOMS>  (1) 
18,17,20,21,22,16,15

>  <_MOLCOUNT>  (1) 
1

$$$$
