Cpptraj Generated mol2 file.
     RDKit          3D

 46 49  0  0  0  0  0  0  0  0999 V2000
   36.1890   67.9255   36.5713 C   0  0  0  0  0  0  0  0  0  0  0  0
   37.6339   68.2477   35.3941 S   0  0  0  0  0  0  0  0  0  0  0  0
   38.3903   66.6254   34.9349 C   0  0  0  0  0  3  0  0  0  0  0  0
   37.3267   65.7084   35.0074 C   0  0  0  0  0  3  0  0  0  0  0  0
   37.5582   64.3591   34.8177 N   0  0  0  0  0  2  0  0  0  0  0  0
   38.8881   63.9543   34.6077 C   0  0  0  0  0  3  0  0  0  0  0  0
   39.2226   62.6604   34.4136 N   0  0  0  0  0  0  0  0  0  0  0  0
   40.0887   62.1551   33.3185 C   0  0  1  0  0  0  0  0  0  0  0  0
   40.8214   60.8222   33.6316 C   0  0  0  0  0  0  0  0  0  0  0  0
   40.3470   59.7359   32.6488 C   0  0  0  0  0  0  0  0  0  0  0  0
   39.1011   60.3496   31.9940 C   0  0  1  0  0  0  0  0  0  0  0  0
   39.2970   61.8133   32.1115 C   0  0  0  0  0  0  0  0  0  0  0  0
   38.8212   59.9135   30.6445 N   0  0  0  0  0  0  0  0  0  0  0  0
   38.0553   58.7801   30.3847 C   0  0  0  0  0  3  0  0  0  0  0  0
   38.0334   57.7047   31.2525 C   0  0  0  0  0  3  0  0  0  0  0  0
   37.4244   56.6112   30.7411 C   0  0  0  0  0  3  0  0  0  0  0  0
   36.7096   56.5410   29.5201 C   0  0  0  0  0  3  0  0  0  0  0  0
   36.6605   57.7603   28.8420 C   0  0  0  0  0  3  0  0  0  0  0  0
   37.3301   58.8703   29.1875 N   0  0  0  0  0  2  0  0  0  0  0  0
   35.9586   55.4205   29.1027 N   0  0  0  0  0  0  0  0  0  0  0  0
   36.4932   54.5655   28.1573 C   0  0  0  0  0  3  0  0  0  0  0  0
   35.5259   53.6583   27.9071 N   0  0  0  0  0  2  0  0  0  0  0  0
   34.4639   54.0337   28.7689 C   0  0  0  0  0  3  0  0  0  0  0  0
   34.7173   55.1357   29.5107 N   0  0  0  0  0  2  0  0  0  0  0  0
   39.9245   64.8643   34.4928 N   0  0  0  0  0  2  0  0  0  0  0  0
   39.6860   66.1896   34.6078 C   0  0  0  0  0  3  0  0  0  0  0  0
   35.5381   67.1704   36.1136 H   0  0  0  0  0  0  0  0  0  0  0  0
   36.6003   67.5046   37.4971 H   0  0  0  0  0  0  0  0  0  0  0  0
   35.6520   68.8741   36.6945 H   0  0  0  0  0  0  0  0  0  0  0  0
   36.2424   65.7822   35.0762 H   0  0  0  0  0  0  0  0  0  0  0  0
   38.4322   62.1024   34.7103 H   0  0  0  0  0  0  0  0  0  0  0  0
   40.8179   62.9383   33.0770 H   0  0  0  0  0  0  0  0  0  0  0  0
   41.9060   60.9711   33.7011 H   0  0  0  0  0  0  0  0  0  0  0  0
   40.5753   60.5893   34.6749 H   0  0  0  0  0  0  0  0  0  0  0  0
   41.1198   59.4242   31.9354 H   0  0  0  0  0  0  0  0  0  0  0  0
   40.0501   58.8591   33.2375 H   0  0  0  0  0  0  0  0  0  0  0  0
   38.2755   60.0811   32.6646 H   0  0  0  0  0  0  0  0  0  0  0  0
   39.8593   62.1908   31.2485 H   0  0  0  0  0  0  0  0  0  0  0  0
   38.3601   62.3817   32.0611 H   0  0  0  0  0  0  0  0  0  0  0  0
   38.8459   60.6861   29.9914 H   0  0  0  0  0  0  0  0  0  0  0  0
   38.3416   57.7838   32.2908 H   0  0  0  0  0  0  0  0  0  0  0  0
   37.1607   55.8243   31.4416 H   0  0  0  0  0  0  0  0  0  0  0  0
   36.0389   57.8952   27.9581 H   0  0  0  0  0  0  0  0  0  0  0  0
   37.4236   54.7471   27.6356 H   0  0  0  0  0  0  0  0  0  0  0  0
   33.5127   53.5218   28.8324 H   0  0  0  0  0  0  0  0  0  0  0  0
   40.4593   66.9427   34.4640 H   0  0  0  0  0  0  0  0  0  0  0  0
 25 26  1  0
 23 24  1  0
 22 23  1  0
 21 22  1  0
 20 21  1  0
 20 24  1  0
 18 19  1  0
 17 18  1  0
 17 20  1  0
 16 17  1  0
 15 16  1  0
 14 15  1  0
 14 19  1  0
 13 14  1  0
 11 12  1  0
 11 13  1  0
 10 11  1  0
  9 10  1  0
  8  9  1  0
  8 12  1  0
  7  8  1  0
  6  7  1  0
  6 25  1  0
  5  6  1  0
  4  5  1  0
  3  4  1  0
  3 26  1  0
  2  3  1  0
  1  2  1  0
 26 46  1  0
 23 45  1  0
 21 44  1  0
 18 43  1  0
 16 42  1  0
 15 41  1  0
 13 40  1  0
 12 38  1  0
 12 39  1  0
 11 37  1  1
 10 35  1  0
 10 36  1  0
  9 33  1  0
  9 34  1  0
  8 32  1  6
  7 31  1  0
  4 30  1  0
  1 27  1  0
  1 28  1  0
  1 29  1  0
M  RAD  8   3   2   4   2   6   2  14   2  15   2  16   2  17   2  18   2
M  CHG  5   5  -1  19  -1  22  -1  24  -1  25  -1
M  RAD  3  21   2  23   2  26   2
M  END
>  <_TriposChargeType>  (1) 
USER_CHARGES

$$$$
