@<TRIPOS>MOLECULE
Cpptraj Generated mol2 file.
   46    49     1     0     0
SMALL
USER_CHARGES


@<TRIPOS>ATOM
      1 C1         34.8260   65.9034   34.6008 C.aa         1 L1      -0.190074
      2 S1         36.2709   66.2256   33.4236 S.ab         1 L1      -0.237389
      3 C2         37.0273   64.6033   32.9644 C.ad         1 L1       0.100656
      4 C3         36.3329   63.4608   32.8626 C.ae         1 L1      -0.074110
      5 N1         36.8826   62.3226   32.4418 N.af         1 L1      -0.247714
      6 C4         38.1659   62.3881   32.0262 C.ah         1 L1       0.320373
      7 N2         38.8563   61.1499   31.9572 N.ai         1 L1      -0.564565
      8 C5         40.0295   60.9830   31.0668 C.aj         1 L1       0.127283
      9 C6         40.9881   59.8430   31.5406 C.ak         1 L1      -0.039680
     10 C7         41.0146   58.7670   30.3896 C.an         1 L1      -0.039680
     11 C8         39.7747   59.0988   29.5756 C.ao         1 L1       0.127283
     12 C9         39.6425   60.6260   29.6723 C.ap         1 L1      -0.048080
     13 N3         39.8484   58.5415   28.2363 N.aq         1 L1      -0.564795
     14 C10        39.2543   57.3530   27.8731 C.av         1 L1       0.290047
     15 C11        38.9583   56.3460   28.8287 C.aw         1 L1      -0.205564
     16 C12        38.2601   55.2527   28.4739 C.ax         1 L1      -0.183409
     17 C13        37.9232   55.1099   27.1409 C.ay         1 L1       0.115067
     18 C14        38.2581   56.1310   26.2363 C.az         1 L1      -0.096173
     19 N4         38.8380   57.2343   26.6115 N.bb         1 L1      -0.228202
     20 N5         37.1722   53.9894   26.7235 N.bc         1 L1       0.029557
     21 C15        37.7068   53.1344   25.7781 C.bd         1 L1      -0.096244
     22 N6         36.7395   52.2272   25.5279 N.bf         1 L1      -0.245056
     23 C16        35.6775   52.6026   26.3897 C.bg         1 L1      -0.080229
     24 N7         35.9309   53.7046   27.1315 N.bh         1 L1      -0.190767
     25 N8         38.9111   63.5081   32.0134 N.bj         1 L1      -0.247714
     26 C17        38.3477   64.5699   32.5822 C.bk         1 L1      -0.074110
     27 H1         34.1751   65.1483   34.1431 H.bl         1 L1       0.111740
     28 H2         35.2373   65.4825   35.5266 H.bm         1 L1       0.111740
     29 H3         34.2890   66.8520   34.7240 H.bn         1 L1       0.111740
     30 H4         35.2486   63.5346   32.9314 H.bo         1 L1       0.141136
     31 H5         38.1564   60.4206   32.0058 H.bp         1 L1       0.358472
     32 H6         40.5676   61.9387   31.0417 H.bq         1 L1       0.068642
     33 H7         41.9714   60.1941   31.8772 H.bs         1 L1       0.031339
     34 H8         40.5166   59.3473   32.3982 H.bt         1 L1       0.031339
     35 H9         41.9972   58.8398   29.9072 H.bu         1 L1       0.031339
     36 H10        40.9563   57.7598   30.8204 H.bv         1 L1       0.031339
     37 H11        38.8783   58.6643   30.0350 H.bw         1 L1       0.068642
     38 H12        40.3209   61.0133   28.9022 H.bx         1 L1       0.037199
     39 H13        38.6171   60.9767   29.5018 H.by         1 L1       0.037199
     40 H14        39.7015   59.2515   27.5304 H.bz         1 L1       0.358566
     41 H15        39.2665   56.4251   29.8670 H.cb         1 L1       0.145742
     42 H16        37.9964   54.4658   29.1744 H.ci         1 L1       0.173704
     43 H17        37.9534   56.1117   25.1910 H.cj         1 L1       0.140530
     44 H18        38.6372   53.3160   25.2564 H.ck         1 L1       0.207312
     45 H19        34.7263   52.0907   26.4532 H.cm         1 L1       0.204431
     46 H20        38.9395   65.4785   32.4819 H.cn         1 L1       0.141136
@<TRIPOS>BOND
    1    25    26 1
    2    23    24 1
    3    22    23 1
    4    21    22 1
    5    20    21 1
    6    20    24 1
    7    18    19 1
    8    17    18 1
    9    17    20 1
   10    16    17 1
   11    15    16 1
   12    14    15 1
   13    14    19 1
   14    13    14 1
   15    11    12 1
   16    11    13 1
   17    10    11 1
   18     9    10 1
   19     8     9 1
   20     8    12 1
   21     7     8 1
   22     6     7 1
   23     6    25 1
   24     5     6 1
   25     4     5 1
   26     3     4 1
   27     3    26 1
   28     2     3 1
   29     1     2 1
   30    26    46 1
   31    23    45 1
   32    21    44 1
   33    18    43 1
   34    16    42 1
   35    15    41 1
   36    13    40 1
   37    12    38 1
   38    12    39 1
   39    11    37 1
   40    10    35 1
   41    10    36 1
   42     9    33 1
   43     9    34 1
   44     8    32 1
   45     7    31 1
   46     4    30 1
   47     1    27 1
   48     1    28 1
   49     1    29 1
@<TRIPOS>SUBSTRUCTURE
      1 L1                1 L.****               0 L.****  L.**** 
