Cpptraj Generated mol2 file.
     RDKit          3D

 58 62  0  0  0  0  0  0  0  0999 V2000
   35.7997   55.1091   27.8473 C   0  0  0  0  0  0  0  0  0  0  0  0
   36.0211   55.4673   29.1389 S   0  0  0  0  0  0  0  0  0  0  0  0
   36.7096   56.5410   29.5201 C   0  0  0  0  0  3  0  0  0  0  0  0
   36.6605   57.7603   28.8420 C   0  0  0  0  0  3  0  0  0  0  0  0
   37.3301   58.8703   29.1875 N   0  0  0  0  0  2  0  0  0  0  0  0
   38.0553   58.7801   30.3847 C   0  0  0  0  0  3  0  0  0  0  0  0
   38.8212   59.9135   30.6445 N   0  0  0  0  0  0  0  0  0  0  0  0
   39.2228   60.3312   32.0166 C   0  0  0  0  0  0  0  0  0  0  0  0
   40.5759   61.1481   32.1891 C   0  0  2  0  0  0  0  0  0  0  0  0
   41.6882   60.1371   31.9701 C   0  0  0  0  0  0  0  0  0  0  0  0
   40.7272   61.7797   33.5215 C   0  0  0  0  0  0  0  0  0  0  0  0
   39.6359   62.7287   33.9348 N   0  0  0  0  0  0  0  0  0  0  0  0
   39.8147   63.8008   34.7755 C   0  0  0  0  0  3  0  0  0  0  0  0
   38.7700   64.6080   34.9229 N   0  0  0  0  0  2  0  0  0  0  0  0
   39.1107   65.6914   35.6459 C   0  0  0  0  0  3  0  0  0  0  0  0
   40.3515   65.6380   36.0885 C   0  0  0  0  0  3  0  0  0  0  0  0
   41.3032   64.3293   35.3397 S   0  0  0  0  0  0  0  0  0  0  0  0
   40.9186   66.6015   36.8443 C   0  0  0  0  0  3  0  0  0  0  0  0
   40.0918   67.6755   37.3775 C   0  0  0  0  0  3  0  0  0  0  0  0
   38.6846   67.5917   37.0529 C   0  0  0  0  0  3  0  0  0  0  0  0
   38.2383   66.6157   36.1117 C   0  0  0  0  0  3  0  0  0  0  0  0
   40.7105   68.7022   38.3116 C   0  0  0  0  0  3  0  0  0  0  0  0
   40.0857   69.2653   39.2292 O   0  0  0  0  0  1  0  0  0  0  0  0
   42.1115   68.7011   38.1282 N   0  0  0  0  0  0  0  0  0  0  0  0
   42.3381   69.2500   36.7312 C   0  0  0  0  0  0  0  0  0  0  0  0
   42.9039   70.4961   37.5106 C   0  0  0  0  0  0  0  0  0  0  0  0
   44.2562   71.0439   37.1864 C   0  0  0  0  0  0  0  0  0  0  0  0
   43.5370   72.3579   37.3600 O   0  0  0  0  0  0  0  0  0  0  0  0
   42.1520   71.8528   37.3492 C   0  0  0  0  0  0  0  0  0  0  0  0
   42.7353   69.8456   38.9593 C   0  0  0  0  0  0  0  0  0  0  0  0
   38.0334   57.7047   31.2525 N   0  0  0  0  0  2  0  0  0  0  0  0
   37.4244   56.6112   30.7411 C   0  0  0  0  0  3  0  0  0  0  0  0
   34.9622   55.6592   27.4007 H   0  0  0  0  0  0  0  0  0  0  0  0
   36.8359   55.3762   27.6058 H   0  0  0  0  0  0  0  0  0  0  0  0
   35.4786   55.9427   27.2105 H   0  0  0  0  0  0  0  0  0  0  0  0
   36.0389   57.8952   27.9581 H   0  0  0  0  0  0  0  0  0  0  0  0
   38.8459   60.6861   29.9914 H   0  0  0  0  0  0  0  0  0  0  0  0
   38.3472   60.9308   32.2948 H   0  0  0  0  0  0  0  0  0  0  0  0
   39.1986   59.5097   32.7432 H   0  0  0  0  0  0  0  0  0  0  0  0
   40.7299   61.9795   31.4902 H   0  0  0  0  0  0  0  0  0  0  0  0
   42.6664   60.6311   32.0212 H   0  0  0  0  0  0  0  0  0  0  0  0
   41.6334   59.3013   32.6786 H   0  0  0  0  0  0  0  0  0  0  0  0
   41.7343   59.6148   31.0066 H   0  0  0  0  0  0  0  0  0  0  0  0
   40.8415   60.9856   34.2697 H   0  0  0  0  0  0  0  0  0  0  0  0
   41.6192   62.4182   33.5242 H   0  0  0  0  0  0  0  0  0  0  0  0
   38.7063   62.3289   33.9440 H   0  0  0  0  0  0  0  0  0  0  0  0
   41.9664   66.4459   37.0840 H   0  0  0  0  0  0  0  0  0  0  0  0
   38.0765   68.3310   37.5658 H   0  0  0  0  0  0  0  0  0  0  0  0
   37.2100   66.5253   35.7745 H   0  0  0  0  0  0  0  0  0  0  0  0
   43.0503   68.6134   36.1959 H   0  0  0  0  0  0  0  0  0  0  0  0
   41.4318   69.3675   36.1280 H   0  0  0  0  0  0  0  0  0  0  0  0
   45.1007   71.0449   37.8834 H   0  0  0  0  0  0  0  0  0  0  0  0
   44.5964   70.8875   36.1574 H   0  0  0  0  0  0  0  0  0  0  0  0
   41.5102   72.1548   38.1834 H   0  0  0  0  0  0  0  0  0  0  0  0
   41.5799   71.8878   36.4161 H   0  0  0  0  0  0  0  0  0  0  0  0
   43.6961   69.5935   39.4201 H   0  0  0  0  0  0  0  0  0  0  0  0
   41.9823   70.3425   39.5799 H   0  0  0  0  0  0  0  0  0  0  0  0
   37.4606   55.6656   31.2802 H   0  0  0  0  0  0  0  0  0  0  0  0
 31 32  1  0
 28 29  1  0
 27 28  1  0
 26 27  1  0
 26 29  1  0
 26 30  1  0
 25 26  1  0
 24 25  1  0
 24 30  1  0
 22 23  1  0
 22 24  1  0
 20 21  1  0
 19 20  1  0
 19 22  1  0
 18 19  1  0
 16 17  1  0
 16 18  1  0
 15 16  1  0
 15 21  1  0
 14 15  1  0
 13 14  1  0
 13 17  1  0
 12 13  1  0
 11 12  1  0
  9 10  1  0
  9 11  1  0
  8  9  1  0
  7  8  1  0
  6  7  1  0
  6 31  1  0
  5  6  1  0
  4  5  1  0
  3  4  1  0
  3 32  1  0
  2  3  1  0
  1  2  1  0
 32 58  1  0
 30 56  1  0
 30 57  1  0
 29 54  1  0
 29 55  1  0
 27 52  1  0
 27 53  1  0
 25 50  1  0
 25 51  1  0
 21 49  1  0
 20 48  1  0
 18 47  1  0
 12 46  1  0
 11 44  1  0
 11 45  1  0
 10 41  1  0
 10 42  1  0
 10 43  1  0
  9 40  1  6
  8 38  1  0
  8 39  1  0
  7 37  1  0
  4 36  1  0
  1 33  1  0
  1 34  1  0
  1 35  1  0
M  RAD  8   3   2   4   2   6   2  13   2  15   2  16   2  18   2  19   2
M  CHG  4   5  -1  14  -1  23  -1  31  -1
M  RAD  4  20   2  21   2  22   2  32   2
M  END
>  <_TriposChargeType>  (1) 
USER_CHARGES

$$$$
