@<TRIPOS>MOLECULE
Cpptraj Generated mol2 file.
   58    62     1     0     0
SMALL
USER_CHARGES


@<TRIPOS>ATOM
      1 C1         35.1563   55.0466   28.1421 C.aa         1 L1      -0.189685
      2 S1         34.8101   55.3634   29.8876 S.ab         1 L1      -0.238600
      3 C2         35.3572   57.0394   30.2413 C.ad         1 L1       0.100392
      4 C3         35.4947   58.0307   29.2433 C.ae         1 L1      -0.074149
      5 N1         36.2379   59.1865   29.4195 N.af         1 L1      -0.247128
      6 C4         36.7630   59.2814   30.5967 C.ah         1 L1       0.321045
      7 N2         37.6156   60.3873   30.7706 N.ai         1 L1      -0.552602
      8 C5         38.0172   60.8050   32.1427 C.aj         1 L1       0.053317
      9 C6         39.3703   61.6219   32.3152 C.ak         1 L1       0.134982
     10 C7         40.4826   60.6109   32.0962 C.an         1 L1      -0.296492
     11 C8         39.5216   62.2535   33.6476 C.ao         1 L1       0.056567
     12 N3         38.4303   63.2025   34.0609 N.ap         1 L1      -0.488093
     13 C9         38.6091   64.2746   34.9016 C.aq         1 L1       0.225243
     14 N4         37.5644   65.0818   35.0490 N.av         1 L1      -0.263967
     15 C10        37.9051   66.1652   35.7720 C.aw         1 L1       0.123932
     16 C11        39.1459   66.1118   36.2146 C.ax         1 L1       0.075832
     17 S2         40.0976   64.8031   35.4658 S.ay         1 L1      -0.133967
     18 C12        39.7130   67.0753   36.9704 C.az         1 L1      -0.258797
     19 C13        38.8862   68.1493   37.5036 C.bb         1 L1       0.011982
     20 C14        37.4790   68.0655   37.1790 C.bc         1 L1      -0.189039
     21 C15        37.0327   67.0895   36.2378 C.bd         1 L1      -0.206955
     22 C16        39.5049   69.1760   38.4377 C.bf         1 L1       0.640859
     23 O1         38.8801   69.7391   39.3553 O.bg         1 L1      -0.612895
     24 N5         40.9059   69.1749   38.2543 N.bh         1 L1      -0.296984
     25 C17        41.1325   69.7238   36.8573 C.bj         1 L1      -0.044149
     26 C18        41.6983   70.9699   37.6367 C.bk         1 L1       0.002267
     27 C19        43.0506   71.5177   37.3125 C.bl         1 L1       0.045723
     28 O2         42.3314   72.8317   37.4861 O.bm         1 L1      -0.400181
     29 C20        40.9464   72.3266   37.4753 C.bn         1 L1       0.045723
     30 C21        41.5297   70.3194   39.0854 C.bo         1 L1      -0.044149
     31 N6         36.7709   58.4054   31.5950 N.bp         1 L1      -0.247128
     32 C22        36.1015   57.2646   31.4226 C.bq         1 L1      -0.074149
     33 H1         34.3188   55.5967   27.6955 H.bs         1 L1       0.111484
     34 H2         36.1925   55.3137   27.9006 H.bt         1 L1       0.111484
     35 H3         35.0291   53.9875   27.8858 H.bu         1 L1       0.111484
     36 H4         35.0412   57.9281   28.2585 H.bv         1 L1       0.140904
     37 H5         37.4190   61.1155   30.0958 H.bw         1 L1       0.356880
     38 H6         37.1416   61.4046   32.4209 H.bx         1 L1       0.066923
     39 H7         37.9930   59.9835   32.8693 H.by         1 L1       0.066923
     40 H8         39.5243   62.4533   31.6163 H.bz         1 L1       0.010827
     41 H9         41.4608   61.1049   32.1473 H.cb         1 L1       0.081741
     42 H10        40.4278   59.7751   32.8047 H.ci         1 L1       0.081741
     43 H11        40.5287   60.0886   31.1327 H.cj         1 L1       0.081741
     44 H12        39.6359   61.4594   34.3958 H.ck         1 L1       0.068274
     45 H13        40.4136   62.8920   33.6503 H.cm         1 L1       0.068274
     46 H14        37.5007   62.8027   34.0701 H.cn         1 L1       0.363758
     47 H15        40.7608   66.9197   37.2101 H.ct         1 L1       0.146051
     48 H16        36.8709   68.8048   37.6919 H.cw         1 L1       0.166294
     49 H17        36.0044   66.9991   35.9006 H.da         1 L1       0.162721
     50 H18        41.8447   69.0872   36.3220 H.db         1 L1       0.090674
     51 H19        40.2262   69.8413   36.2541 H.dc         1 L1       0.090674
     52 H20        43.8951   71.5187   38.0095 H.dd         1 L1       0.080035
     53 H21        43.3908   71.3613   36.2835 H.de         1 L1       0.080035
     54 H22        40.3046   72.6286   38.3095 H.df         1 L1       0.080035
     55 H23        40.3743   72.3616   36.5422 H.dg         1 L1       0.080035
     56 H24        42.4905   70.0673   39.5462 H.dh         1 L1       0.090674
     57 H25        40.7767   70.8163   39.7060 H.di         1 L1       0.090674
     58 H26        35.9774   56.5675   32.2500 H.dj         1 L1       0.140904
@<TRIPOS>BOND
    1    31    32 1
    2    28    29 1
    3    27    28 1
    4    26    27 1
    5    26    29 1
    6    26    30 1
    7    25    26 1
    8    24    25 1
    9    24    30 1
   10    22    23 1
   11    22    24 1
   12    20    21 1
   13    19    20 1
   14    19    22 1
   15    18    19 1
   16    16    17 1
   17    16    18 1
   18    15    16 1
   19    15    21 1
   20    14    15 1
   21    13    14 1
   22    13    17 1
   23    12    13 1
   24    11    12 1
   25     9    10 1
   26     9    11 1
   27     8     9 1
   28     7     8 1
   29     6     7 1
   30     6    31 1
   31     5     6 1
   32     4     5 1
   33     3     4 1
   34     3    32 1
   35     2     3 1
   36     1     2 1
   37    32    58 1
   38    30    56 1
   39    30    57 1
   40    29    54 1
   41    29    55 1
   42    27    52 1
   43    27    53 1
   44    25    50 1
   45    25    51 1
   46    21    49 1
   47    20    48 1
   48    18    47 1
   49    12    46 1
   50    11    44 1
   51    11    45 1
   52    10    41 1
   53    10    42 1
   54    10    43 1
   55     9    40 1
   56     8    38 1
   57     8    39 1
   58     7    37 1
   59     4    36 1
   60     1    33 1
   61     1    34 1
   62     1    35 1
@<TRIPOS>SUBSTRUCTURE
      1 L1                1 L.****               0 L.****  L.**** 
