Cpptraj Generated mol2 file.
     RDKit          3D

 40 42  0  0  0  0  0  0  0  0999 V2000
   28.7013   52.0610   27.1670 C   0  0  0  0  0  0  0  0  0  0  0  0
   30.0675   50.9458   27.6053 S   0  0  0  0  0  0  0  0  0  0  0  0
   31.4621   52.0877   27.4179 C   0  0  0  0  0  3  0  0  0  0  0  0
   32.6432   51.8477   26.6780 C   0  0  0  0  0  3  0  0  0  0  0  0
   33.6745   52.6920   26.5934 N   0  0  0  0  0  2  0  0  0  0  0  0
   33.5425   53.8244   27.3766 C   0  0  0  0  0  3  0  0  0  0  0  0
   34.5171   54.7475   27.2534 N   0  0  0  0  0  0  0  0  0  0  0  0
   34.8264   55.8460   28.1855 C   0  0  0  0  0  0  0  0  0  0  0  0
   36.0211   55.4673   29.1389 C   0  0  2  0  0  0  0  0  0  0  0  0
   35.7997   55.1091   27.8473 O   0  0  0  0  0  0  0  0  0  0  0  0
   35.5641   54.4990   30.3241 C   0  0  0  0  0  0  0  0  0  0  0  0
   36.7412   54.2148   31.1751 N   0  0  0  0  0  0  0  0  0  0  0  0
   37.3345   55.1130   31.9746 C   0  0  0  0  0  3  0  0  0  0  0  0
   38.6284   55.0038   32.4403 N   0  0  0  0  0  2  0  0  0  0  0  0
   38.8621   56.2684   32.8797 C   0  0  0  0  0  3  0  0  0  0  0  0
   37.7949   57.0650   32.6504 C   0  0  0  0  0  3  0  0  0  0  0  0
   36.8226   56.3867   32.0755 O   0  0  0  0  0  0  0  0  0  0  0  0
   37.8236   58.3293   33.1567 C   0  0  0  0  0  3  0  0  0  0  0  0
   38.8908   58.8337   33.9262 C   0  0  0  0  0  3  0  0  0  0  0  0
   39.9688   58.0031   34.1224 C   0  0  0  0  0  3  0  0  0  0  0  0
   39.9840   56.6775   33.5771 C   0  0  0  0  0  3  0  0  0  0  0  0
   32.4890   54.1807   28.1906 N   0  0  0  0  0  2  0  0  0  0  0  0
   31.4683   53.3071   28.1715 C   0  0  0  0  0  3  0  0  0  0  0  0
   27.8390   51.4422   27.4444 H   0  0  0  0  0  0  0  0  0  0  0  0
   28.6117   52.9796   27.7600 H   0  0  0  0  0  0  0  0  0  0  0  0
   28.7271   52.2891   26.0943 H   0  0  0  0  0  0  0  0  0  0  0  0
   32.7335   50.8962   26.1560 H   0  0  0  0  0  0  0  0  0  0  0  0
   35.2276   54.4736   26.5867 H   0  0  0  0  0  0  0  0  0  0  0  0
   35.0692   56.7546   27.6206 H   0  0  0  0  0  0  0  0  0  0  0  0
   33.8842   56.0146   28.7215 H   0  0  0  0  0  0  0  0  0  0  0  0
   36.3445   56.3642   29.6815 H   0  0  0  0  0  0  0  0  0  0  0  0
   35.5722   54.1660   27.7732 H   0  0  0  0  0  0  0  0  0  0  0  0
   34.7830   54.9956   30.9128 H   0  0  0  0  0  0  0  0  0  0  0  0
   35.0801   53.6307   29.8604 H   0  0  0  0  0  0  0  0  0  0  0  0
   37.0607   53.2588   31.2650 H   0  0  0  0  0  0  0  0  0  0  0  0
   36.9100   58.9083   33.0593 H   0  0  0  0  0  0  0  0  0  0  0  0
   38.8567   59.7800   34.4578 H   0  0  0  0  0  0  0  0  0  0  0  0
   40.7700   58.4382   34.7124 H   0  0  0  0  0  0  0  0  0  0  0  0
   40.8729   56.0565   33.5167 H   0  0  0  0  0  0  0  0  0  0  0  0
   30.5864   53.5610   28.7577 H   0  0  0  0  0  0  0  0  0  0  0  0
 22 23  1  0
 20 21  1  0
 19 20  1  0
 18 19  1  0
 16 17  1  0
 16 18  1  0
 15 16  1  0
 15 21  1  0
 14 15  1  0
 13 14  1  0
 13 17  1  0
 12 13  1  0
 11 12  1  0
  9 10  1  0
  9 11  1  0
  8  9  1  0
  7  8  1  0
  6  7  1  0
  6 22  1  0
  5  6  1  0
  4  5  1  0
  3  4  1  0
  3 23  1  0
  2  3  1  0
  1  2  1  0
 23 40  1  0
 21 39  1  0
 20 38  1  0
 19 37  1  0
 18 36  1  0
 12 35  1  0
 11 33  1  0
 11 34  1  0
 10 32  1  0
  9 31  1  6
  8 29  1  0
  8 30  1  0
  7 28  1  0
  4 27  1  0
  1 24  1  0
  1 25  1  0
  1 26  1  0
M  RAD  8   3   2   4   2   6   2  13   2  15   2  16   2  18   2  19   2
M  CHG  3   5  -1  14  -1  22  -1
M  RAD  3  20   2  21   2  23   2
M  END
>  <_TriposChargeType>  (1) 
USER_CHARGES

$$$$
