@<TRIPOS>MOLECULE
Cpptraj Generated mol2 file.
   40    42     1     0     0
SMALL
USER_CHARGES


@<TRIPOS>ATOM
      1 C1         27.1224   57.5746   23.8541 aa         1 L1      -0.177275
      2 S1         28.4886   56.4594   24.2924 ab         1 L1      -0.260955
      3 C2         29.8832   57.6013   24.1050 ad         1 L1       0.105951
      4 C3         31.0643   57.3613   23.3651 ae         1 L1      -0.063965
      5 N1         32.0956   58.2056   23.2805 af         1 L1      -0.232487
      6 C4         31.9636   59.3380   24.0637 ah         1 L1       0.323123
      7 N2         32.9382   60.2611   23.9405 ai         1 L1      -0.594418
      8 C5         33.2475   61.3596   24.8726 aj         1 L1       0.067154
      9 C6         34.4422   60.9809   25.8260 ak         1 L1       0.040620
     10 O1         35.4428   60.3246   25.0376 an         1 L1      -0.628444
     11 C7         33.9852   60.0126   27.0112 ao         1 L1       0.060659
     12 N3         35.1623   59.7284   27.8622 ap         1 L1      -0.525488
     13 C8         35.7556   60.6266   28.6617 aq         1 L1       0.315391
     14 N4         37.0495   60.5174   29.1274 av         1 L1      -0.300946
     15 C9         37.2832   61.7820   29.5668 aw         1 L1       0.107497
     16 C10        36.2160   62.5786   29.3375 ax         1 L1       0.150466
     17 O2         35.2437   61.9003   28.7626 ay         1 L1      -0.243637
     18 C11        36.2447   63.8429   29.8438 az         1 L1      -0.215849
     19 C12        37.3119   64.3473   30.6133 bb         1 L1      -0.150063
     20 C13        38.3899   63.5167   30.8095 bc         1 L1      -0.150063
     21 C14        38.4051   62.1911   30.2642 bd         1 L1      -0.212726
     22 N5         30.9101   59.6943   24.8777 bf         1 L1      -0.232487
     23 C15        29.8894   58.8207   24.8586 bg         1 L1      -0.063965
     24 H1         26.2601   56.9558   24.1315 bh         1 L1       0.103496
     25 H2         27.0328   58.4932   24.4471 bj         1 L1       0.103496
     26 H3         27.1482   57.8027   22.7814 bk         1 L1       0.103496
     27 H4         31.1546   56.4098   22.8431 bl         1 L1       0.152626
     28 H5         33.6487   59.9872   23.2738 bm         1 L1       0.354630
     29 H6         33.4903   62.2682   24.3077 bn         1 L1       0.042985
     30 H7         32.3053   61.5282   25.4086 bo         1 L1       0.042985
     31 H8         34.7656   61.8778   26.3686 bp         1 L1       0.321744
     32 H9         35.2153   59.3815   24.9635 bq         1 L1       0.435409
     33 H10        33.2041   60.5092   27.5999 bs         1 L1       0.063606
     34 H11        33.5012   59.1443   26.5475 bt         1 L1       0.063606
     35 H12        35.4818   58.7724   27.9521 bu         1 L1       0.356323
     36 H13        35.3311   64.4219   29.7464 bv         1 L1       0.145292
     37 H14        37.2778   65.2936   31.1449 bw         1 L1       0.143604
     38 H15        39.1911   63.9518   31.3995 bx         1 L1       0.143604
     39 H16        39.2940   61.5701   30.2038 by         1 L1       0.152380
     40 H17        29.0075   59.0746   25.4448 bz         1 L1       0.152626
@<TRIPOS>BOND
    1    22    23 1
    2    20    21 1
    3    19    20 1
    4    18    19 1
    5    16    17 1
    6    16    18 1
    7    15    16 1
    8    15    21 1
    9    14    15 1
   10    13    14 1
   11    13    17 1
   12    12    13 1
   13    11    12 1
   14     9    10 1
   15     9    11 1
   16     8     9 1
   17     7     8 1
   18     6     7 1
   19     6    22 1
   20     5     6 1
   21     4     5 1
   22     3     4 1
   23     3    23 1
   24     2     3 1
   25     1     2 1
   26    23    40 1
   27    21    39 1
   28    20    38 1
   29    19    37 1
   30    18    36 1
   31    12    35 1
   32    11    33 1
   33    11    34 1
   34    10    32 1
   35     9    31 1
   36     8    29 1
   37     8    30 1
   38     7    28 1
   39     4    27 1
   40     1    24 1
   41     1    25 1
   42     1    26 1
@<TRIPOS>SUBSTRUCTURE
      1 L1                1 ****               0 ****  **** 
