Cpptraj Generated mol2 file.
     RDKit          3D

 47 49  0  0  0  0  0  0  0  0999 V2000
   35.7997   55.1091   27.8473 C   0  0  0  0  0  0  0  0  0  0  0  0
   36.0211   55.4673   29.1389 S   0  0  0  0  0  0  0  0  0  0  0  0
   36.7096   56.5410   29.5201 C   0  0  0  0  0  3  0  0  0  0  0  0
   37.4244   56.6112   30.7411 C   0  0  0  0  0  3  0  0  0  0  0  0
   38.0334   57.7047   31.2525 N   0  0  0  0  0  2  0  0  0  0  0  0
   38.0553   58.7801   30.3847 C   0  0  0  0  0  3  0  0  0  0  0  0
   38.8212   59.9135   30.6445 N   0  0  0  0  0  0  0  0  0  0  0  0
   38.7441   60.4087   31.9686 C   0  0  0  0  0  0  0  0  0  0  0  0
   39.9958   61.2471   32.3505 C   0  0  2  0  0  0  0  0  0  0  0  0
   41.2079   60.2614   32.4164 C   0  0  0  0  0  0  0  0  0  0  0  0
   39.8862   61.6407   33.8092 C   0  0  0  0  0  0  0  0  0  0  0  0
   38.5911   62.4602   34.0336 N   0  0  0  0  0  0  0  0  0  0  0  0
   38.5793   63.7859   34.4727 C   0  0  0  0  0  3  0  0  0  0  0  0
   37.3787   64.3084   34.9804 C   0  0  0  0  0  3  0  0  0  0  0  0
   37.2274   65.5771   35.3024 N   0  0  0  0  0  2  0  0  0  0  0  0
   38.3040   66.3600   35.3847 C   0  0  0  0  0  3  0  0  0  0  0  0
   39.5449   65.8245   35.0350 C   0  0  0  0  0  3  0  0  0  0  0  0
   39.6970   64.5555   34.4908 N   0  0  0  0  0  2  0  0  0  0  0  0
   38.2238   67.6886   36.0785 C   0  0  0  0  0  3  0  0  0  0  0  0
   39.1995   68.6353   35.8302 C   0  0  0  0  0  3  0  0  0  0  0  0
   39.1391   69.8284   36.4752 C   0  0  0  0  0  3  0  0  0  0  0  0
   38.2098   69.9798   37.5156 C   0  0  0  0  0  3  0  0  0  0  0  0
   37.2719   69.0307   37.7635 C   0  0  0  0  0  3  0  0  0  0  0  0
   37.2181   67.8833   36.9863 N   0  0  0  0  0  2  0  0  0  0  0  0
   37.3301   58.8703   29.1875 N   0  0  0  0  0  2  0  0  0  0  0  0
   36.6605   57.7603   28.8420 C   0  0  0  0  0  3  0  0  0  0  0  0
   35.1454   54.3553   27.3922 H   0  0  0  0  0  0  0  0  0  0  0  0
   35.3790   56.0877   27.5849 H   0  0  0  0  0  0  0  0  0  0  0  0
   35.4786   55.9427   27.2105 H   0  0  0  0  0  0  0  0  0  0  0  0
   37.4606   55.6656   31.2802 H   0  0  0  0  0  0  0  0  0  0  0  0
   38.8459   60.6861   29.9914 H   0  0  0  0  0  0  0  0  0  0  0  0
   37.8142   60.9866   32.0373 H   0  0  0  0  0  0  0  0  0  0  0  0
   38.5092   59.6137   32.6871 H   0  0  0  0  0  0  0  0  0  0  0  0
   40.2806   62.0744   31.6888 H   0  0  0  0  0  0  0  0  0  0  0  0
   41.5643   59.9773   31.4186 H   0  0  0  0  0  0  0  0  0  0  0  0
   42.1544   60.6992   32.7567 H   0  0  0  0  0  0  0  0  0  0  0  0
   41.0558   59.3921   33.0680 H   0  0  0  0  0  0  0  0  0  0  0  0
   39.9034   60.7474   34.4458 H   0  0  0  0  0  0  0  0  0  0  0  0
   40.7911   62.2166   34.0391 H   0  0  0  0  0  0  0  0  0  0  0  0
   37.8199   61.8734   34.3251 H   0  0  0  0  0  0  0  0  0  0  0  0
   36.4658   63.7211   34.8930 H   0  0  0  0  0  0  0  0  0  0  0  0
   40.4286   66.4492   35.1566 H   0  0  0  0  0  0  0  0  0  0  0  0
   40.0718   68.4547   35.2089 H   0  0  0  0  0  0  0  0  0  0  0  0
   39.9384   70.5474   36.3217 H   0  0  0  0  0  0  0  0  0  0  0  0
   38.1278   70.9083   38.0730 H   0  0  0  0  0  0  0  0  0  0  0  0
   36.4568   69.1198   38.4802 H   0  0  0  0  0  0  0  0  0  0  0  0
   36.0389   57.8952   27.9581 H   0  0  0  0  0  0  0  0  0  0  0  0
 25 26  1  0
 23 24  1  0
 22 23  1  0
 21 22  1  0
 20 21  1  0
 19 20  1  0
 19 24  1  0
 17 18  1  0
 16 17  1  0
 16 19  1  0
 15 16  1  0
 14 15  1  0
 13 14  1  0
 13 18  1  0
 12 13  1  0
 11 12  1  0
  9 10  1  0
  9 11  1  0
  8  9  1  0
  7  8  1  0
  6  7  1  0
  6 25  1  0
  5  6  1  0
  4  5  1  0
  3  4  1  0
  3 26  1  0
  2  3  1  0
  1  2  1  0
 26 47  1  0
 23 46  1  0
 22 45  1  0
 21 44  1  0
 20 43  1  0
 17 42  1  0
 14 41  1  0
 12 40  1  0
 11 38  1  0
 11 39  1  0
 10 35  1  0
 10 36  1  0
 10 37  1  0
  9 34  1  6
  8 32  1  0
  8 33  1  0
  7 31  1  0
  4 30  1  0
  1 27  1  0
  1 28  1  0
  1 29  1  0
M  RAD  8   3   2   4   2   6   2  13   2  14   2  16   2  17   2  19   2
M  CHG  5   5  -1  15  -1  18  -1  24  -1  25  -1
M  RAD  5  20   2  21   2  22   2  23   2  26   2
M  END
>  <_TriposChargeType>  (1) 
USER_CHARGES

$$$$
