@<TRIPOS>MOLECULE
Cpptraj Generated mol2 file.
   47    49     1     0     0
SMALL
USER_CHARGES


@<TRIPOS>ATOM
      1 C1         35.5191   56.0492   26.8829 C.aa         1 L1      -0.189506
      2 S1         35.5473   55.7879   28.7551 S.ab         1 L1      -0.239721
      3 C2         36.3117   57.3428   29.3134 C.ad         1 L1       0.100054
      4 C3         36.3666   57.6986   30.6493 C.ae         1 L1      -0.074291
      5 N1         36.9283   58.8520   31.0567 N.af         1 L1      -0.247665
      6 C4         37.3822   59.6614   30.0758 C.ah         1 L1       0.321164
      7 N2         37.9773   60.8307   30.5425 N.ai         1 L1      -0.552289
      8 C5         37.9002   61.3259   31.8666 C.aj         1 L1       0.054269
      9 C6         39.1519   62.1643   32.2485 C.ak         1 L1       0.134850
     10 C7         40.3640   61.1786   32.3144 C.an         1 L1      -0.296102
     11 C8         39.0423   62.5579   33.7072 C.ao         1 L1       0.054269
     12 N3         37.7472   63.3774   33.9316 N.ap         1 L1      -0.556072
     13 C9         37.7354   64.7031   34.3707 C.aq         1 L1       0.253459
     14 C10        36.5348   65.2256   34.8784 C.av         1 L1      -0.099042
     15 N4         36.3835   66.4943   35.2004 N.aw         1 L1      -0.154656
     16 C11        37.4601   67.2772   35.2827 C.ax         1 L1       0.054779
     17 C12        38.7010   66.7417   34.9330 C.ay         1 L1      -0.089488
     18 N5         38.8531   65.4727   34.3888 N.az         1 L1      -0.217943
     19 C13        37.3799   68.6058   35.9765 C.bb         1 L1       0.100543
     20 C14        38.3556   69.5525   35.7282 C.bc         1 L1      -0.186297
     21 C15        38.2952   70.7456   36.3732 C.bd         1 L1      -0.121808
     22 C16        37.3659   70.8970   37.4136 C.bf         1 L1      -0.178871
     23 C17        36.4280   69.9479   37.6615 C.bg         1 L1      -0.032979
     24 N6         36.3742   68.8005   36.8843 N.bh         1 L1      -0.171027
     25 N7         37.3598   59.4720   28.7758 N.bj         1 L1      -0.247665
     26 C18        36.7831   58.3206   28.3875 C.bk         1 L1      -0.074291
     27 H1         34.8648   55.2954   26.4278 H.bl         1 L1       0.111233
     28 H2         35.0984   57.0278   26.6205 H.bm         1 L1       0.111233
     29 H3         36.5200   55.9557   26.4439 H.bn         1 L1       0.111233
     30 H4         36.0625   56.9371   31.3659 H.bo         1 L1       0.140099
     31 H5         38.2693   61.5286   29.8704 H.bp         1 L1       0.355600
     32 H6         36.9703   61.9038   31.9353 H.bq         1 L1       0.066298
     33 H7         37.6653   60.5309   32.5851 H.bs         1 L1       0.066298
     34 H8         39.4367   62.9916   31.5868 H.bt         1 L1       0.011689
     35 H9         40.7204   60.8945   31.3166 H.bu         1 L1       0.079911
     36 H10        41.3105   61.6164   32.6547 H.bv         1 L1       0.079911
     37 H11        40.2119   60.3093   32.9660 H.bw         1 L1       0.079911
     38 H12        39.0595   61.6646   34.3438 H.bx         1 L1       0.066298
     39 H13        39.9472   63.1338   33.9371 H.by         1 L1       0.066298
     40 H14        36.9760   62.7906   34.2231 H.bz         1 L1       0.338249
     41 H15        35.6219   64.6383   34.7910 H.cb         1 L1       0.130936
     42 H16        39.5847   67.3664   35.0546 H.ci         1 L1       0.134436
     43 H17        39.2279   69.3719   35.1069 H.cj         1 L1       0.140934
     44 H18        39.0945   71.4646   36.2197 H.ck         1 L1       0.142454
     45 H19        37.2839   71.8255   37.9710 H.cm         1 L1       0.143741
     46 H20        35.6129   70.0370   38.3782 H.cn         1 L1       0.139463
     47 H21        36.6187   58.2832   27.3116 H.ct         1 L1       0.140099
@<TRIPOS>BOND
    1    25    26 1
    2    23    24 1
    3    22    23 1
    4    21    22 1
    5    20    21 1
    6    19    20 1
    7    19    24 1
    8    17    18 1
    9    16    17 1
   10    16    19 1
   11    15    16 1
   12    14    15 1
   13    13    14 1
   14    13    18 1
   15    12    13 1
   16    11    12 1
   17     9    10 1
   18     9    11 1
   19     8     9 1
   20     7     8 1
   21     6     7 1
   22     6    25 1
   23     5     6 1
   24     4     5 1
   25     3     4 1
   26     3    26 1
   27     2     3 1
   28     1     2 1
   29    26    47 1
   30    23    46 1
   31    22    45 1
   32    21    44 1
   33    20    43 1
   34    17    42 1
   35    14    41 1
   36    12    40 1
   37    11    38 1
   38    11    39 1
   39    10    35 1
   40    10    36 1
   41    10    37 1
   42     9    34 1
   43     8    32 1
   44     8    33 1
   45     7    31 1
   46     4    30 1
   47     1    27 1
   48     1    28 1
   49     1    29 1
@<TRIPOS>SUBSTRUCTURE
      1 L1                1 L.****               0 L.****  L.**** 
