Cpptraj Generated mol2 file.
     RDKit          3D

 45 47  0  0  0  0  0  0  0  0999 V2000
   35.7997   55.1091   27.8473 C   0  0  0  0  0  0  0  0  0  0  0  0
   36.0211   55.4673   29.1389 S   0  0  0  0  0  0  0  0  0  0  0  0
   36.7096   56.5410   29.5201 C   0  0  0  0  0  3  0  0  0  0  0  0
   36.6605   57.7603   28.8420 C   0  0  0  0  0  3  0  0  0  0  0  0
   37.3301   58.8703   29.1875 N   0  0  0  0  0  2  0  0  0  0  0  0
   38.0553   58.7801   30.3847 C   0  0  0  0  0  3  0  0  0  0  0  0
   38.8212   59.9135   30.6445 N   0  0  0  0  0  0  0  0  0  0  0  0
   38.9186   60.3530   32.1434 C   0  0  0  0  0  0  0  0  0  0  0  0
   40.2018   61.1795   32.5812 C   0  0  0  0  0  0  0  0  0  0  0  0
   40.3418   62.3036   31.5892 C   0  0  0  0  0  0  0  0  0  0  0  0
   41.4616   60.3377   32.5525 C   0  0  0  0  0  0  0  0  0  0  0  0
   39.9684   61.7276   34.0390 C   0  0  0  0  0  0  0  0  0  0  0  0
   38.6168   62.3686   34.3720 N   0  0  0  0  0  0  0  0  0  0  0  0
   38.3011   63.5483   34.9509 C   0  0  0  0  0  3  0  0  0  0  0  0
   37.1088   63.7337   35.4672 N   0  0  0  0  0  2  0  0  0  0  0  0
   37.2051   65.0184   35.8987 C   0  0  0  0  0  3  0  0  0  0  0  0
   38.3842   65.5732   35.5640 C   0  0  0  0  0  3  0  0  0  0  0  0
   39.1640   64.6429   34.9078 O   0  0  0  0  0  0  0  0  0  0  0  0
   38.7534   66.8472   35.9198 C   0  0  0  0  0  3  0  0  0  0  0  0
   37.8145   67.5659   36.6673 C   0  0  0  0  0  3  0  0  0  0  0  0
   36.5233   66.9730   37.0101 C   0  0  0  0  0  3  0  0  0  0  0  0
   36.2002   65.6739   36.6296 C   0  0  0  0  0  3  0  0  0  0  0  0
   38.0334   57.7047   31.2525 N   0  0  0  0  0  2  0  0  0  0  0  0
   37.4244   56.6112   30.7411 C   0  0  0  0  0  3  0  0  0  0  0  0
   36.0352   54.1318   27.4081 H   0  0  0  0  0  0  0  0  0  0  0  0
   34.9393   55.4606   27.2645 H   0  0  0  0  0  0  0  0  0  0  0  0
   35.4786   55.9427   27.2105 H   0  0  0  0  0  0  0  0  0  0  0  0
   36.0389   57.8952   27.9581 H   0  0  0  0  0  0  0  0  0  0  0  0
   38.8459   60.6861   29.9914 H   0  0  0  0  0  0  0  0  0  0  0  0
   38.0211   60.9060   32.4468 H   0  0  0  0  0  0  0  0  0  0  0  0
   38.9266   59.5599   32.9013 H   0  0  0  0  0  0  0  0  0  0  0  0
   41.0787   62.9993   32.0090 H   0  0  0  0  0  0  0  0  0  0  0  0
   40.6121   62.0637   30.5534 H   0  0  0  0  0  0  0  0  0  0  0  0
   39.3523   62.7601   31.4626 H   0  0  0  0  0  0  0  0  0  0  0  0
   41.4217   59.5032   33.2635 H   0  0  0  0  0  0  0  0  0  0  0  0
   41.7203   59.9932   31.5437 H   0  0  0  0  0  0  0  0  0  0  0  0
   42.2571   60.9919   32.9302 H   0  0  0  0  0  0  0  0  0  0  0  0
   40.1934   60.9332   34.7614 H   0  0  0  0  0  0  0  0  0  0  0  0
   40.7779   62.4588   34.1549 H   0  0  0  0  0  0  0  0  0  0  0  0
   37.8252   61.7383   34.3875 H   0  0  0  0  0  0  0  0  0  0  0  0
   39.6820   67.2918   35.5741 H   0  0  0  0  0  0  0  0  0  0  0  0
   38.1589   68.4874   37.1274 H   0  0  0  0  0  0  0  0  0  0  0  0
   35.8770   67.5486   37.6661 H   0  0  0  0  0  0  0  0  0  0  0  0
   35.3169   65.1742   37.0163 H   0  0  0  0  0  0  0  0  0  0  0  0
   37.4606   55.6656   31.2802 H   0  0  0  0  0  0  0  0  0  0  0  0
 23 24  1  0
 21 22  1  0
 20 21  1  0
 19 20  1  0
 17 18  1  0
 17 19  1  0
 16 17  1  0
 16 22  1  0
 15 16  1  0
 14 15  1  0
 14 18  1  0
 13 14  1  0
 12 13  1  0
  9 10  1  0
  9 11  1  0
  9 12  1  0
  8  9  1  0
  7  8  1  0
  6  7  1  0
  6 23  1  0
  5  6  1  0
  4  5  1  0
  3  4  1  0
  3 24  1  0
  2  3  1  0
  1  2  1  0
 24 45  1  0
 22 44  1  0
 21 43  1  0
 20 42  1  0
 19 41  1  0
 13 40  1  0
 12 38  1  0
 12 39  1  0
 11 35  1  0
 11 36  1  0
 11 37  1  0
 10 32  1  0
 10 33  1  0
 10 34  1  0
  8 30  1  0
  8 31  1  0
  7 29  1  0
  4 28  1  0
  1 25  1  0
  1 26  1  0
  1 27  1  0
M  RAD  8   3   2   4   2   6   2  14   2  16   2  17   2  19   2  20   2
M  CHG  3   5  -1  15  -1  23  -1
M  RAD  3  21   2  22   2  24   2
M  END
>  <_TriposChargeType>  (1) 
USER_CHARGES

$$$$
