@<TRIPOS>MOLECULE
Cpptraj Generated mol2 file.
   45    47     1     0     0
SMALL
USER_CHARGES


@<TRIPOS>ATOM
      1 C1         36.3198   55.1158   26.1629 aa         1 L1      -0.189401
      2 S1         35.9506   55.0053   27.9092 ab         1 L1      -0.240561
      3 C2         36.4173   56.6950   28.4083 ad         1 L1       0.100112
      4 C3         36.4661   57.7961   27.4757 ae         1 L1      -0.074026
      5 N1         36.6904   59.0578   27.9869 af         1 L1      -0.247796
      6 C4         36.9620   59.1386   29.3374 ah         1 L1       0.320950
      7 N2         37.2209   60.4324   29.8190 ai         1 L1      -0.549079
      8 C5         37.3183   60.8719   31.3179 aj         1 L1      -0.004890
      9 C6         38.6015   61.6984   31.7557 ak         1 L1       0.453102
     10 C7         38.7415   62.8225   30.7637 an         1 L1      -0.356820
     11 C8         39.8613   60.8566   31.7270 ao         1 L1      -0.356820
     12 C9         38.3681   62.2465   33.2135 ap         1 L1       0.001494
     13 N3         37.0165   62.8875   33.5465 aq         1 L1      -0.510201
     14 C10        36.7008   64.0672   34.1254 av         1 L1       0.333214
     15 N4         35.5085   64.2526   34.6417 aw         1 L1      -0.319217
     16 C11        35.6048   65.5373   35.0732 ax         1 L1       0.107359
     17 C12        36.7839   66.0921   34.7385 ay         1 L1       0.155760
     18 O1         37.5637   65.1618   34.0823 az         1 L1      -0.242078
     19 C13        37.1531   67.3661   35.0943 bb         1 L1      -0.217456
     20 C14        36.2142   68.0848   35.8418 bc         1 L1      -0.149685
     21 C15        34.9230   67.4919   36.1846 bd         1 L1      -0.149685
     22 C16        34.5999   66.1928   35.8041 bf         1 L1      -0.210508
     23 N5         36.9891   58.1010   30.2194 bg         1 L1      -0.247796
     24 C17        36.6066   56.8905   29.7894 bh         1 L1      -0.074026
     25 H1         36.5553   54.1385   25.7237 bj         1 L1       0.110966
     26 H2         35.4594   55.4673   25.5801 bk         1 L1       0.110966
     27 H3         37.1819   55.7721   25.9913 bl         1 L1       0.110966
     28 H4         36.2792   57.6756   26.4097 bm         1 L1       0.140263
     29 H5         37.0913   61.1453   29.1125 bn         1 L1       0.358329
     30 H6         36.4208   61.4249   31.6213 bo         1 L1       0.065693
     31 H7         37.3263   60.0788   32.0758 bp         1 L1       0.065693
     32 H8         39.4784   63.5182   31.1835 bq         1 L1       0.078316
     33 H9         39.0118   62.5826   29.7279 bs         1 L1       0.078316
     34 H10        37.7520   63.2790   30.6371 bt         1 L1       0.078316
     35 H11        39.8214   60.0221   32.4380 bu         1 L1       0.078316
     36 H12        40.1200   60.5121   30.7182 bv         1 L1       0.078316
     37 H13        40.6568   61.5108   32.1047 bw         1 L1       0.078316
     38 H14        38.5931   61.4521   33.9359 bx         1 L1       0.066930
     39 H15        39.1776   62.9777   33.3294 by         1 L1       0.066930
     40 H16        36.2249   62.2572   33.5620 bz         1 L1       0.364307
     41 H17        38.0817   67.8107   34.7486 cb         1 L1       0.149723
     42 H18        36.5586   69.0063   36.3019 ci         1 L1       0.145808
     43 H19        34.2767   68.0675   36.8406 cj         1 L1       0.145808
     44 H20        33.7166   65.6931   36.1908 ck         1 L1       0.155514
     45 H21        36.4666   56.0847   30.5083 cm         1 L1       0.140263
@<TRIPOS>BOND
    1    23    24 1
    2    21    22 1
    3    20    21 1
    4    19    20 1
    5    17    18 1
    6    17    19 1
    7    16    17 1
    8    16    22 1
    9    15    16 1
   10    14    15 1
   11    14    18 1
   12    13    14 1
   13    12    13 1
   14     9    10 1
   15     9    11 1
   16     9    12 1
   17     8     9 1
   18     7     8 1
   19     6     7 1
   20     6    23 1
   21     5     6 1
   22     4     5 1
   23     3     4 1
   24     3    24 1
   25     2     3 1
   26     1     2 1
   27    24    45 1
   28    22    44 1
   29    21    43 1
   30    20    42 1
   31    19    41 1
   32    13    40 1
   33    12    38 1
   34    12    39 1
   35    11    35 1
   36    11    36 1
   37    11    37 1
   38    10    32 1
   39    10    33 1
   40    10    34 1
   41     8    30 1
   42     8    31 1
   43     7    29 1
   44     4    28 1
   45     1    25 1
   46     1    26 1
   47     1    27 1
@<TRIPOS>SUBSTRUCTURE
      1 L1                1 ****               0 ****  **** 
