Cpptraj Generated mol2 file.
     RDKit          3D

 58 61  0  0  0  0  0  0  0  0999 V2000
   35.7997   55.1091   27.8473 C   0  0  0  0  0  0  0  0  0  0  0  0
   36.0211   55.4673   29.1389 S   0  0  0  0  0  0  0  0  0  0  0  0
   36.7096   56.5410   29.5201 C   0  0  0  0  0  3  0  0  0  0  0  0
   36.6605   57.7603   28.8420 C   0  0  0  0  0  3  0  0  0  0  0  0
   37.3301   58.8703   29.1875 N   0  0  0  0  0  2  0  0  0  0  0  0
   38.0553   58.7801   30.3847 C   0  0  0  0  0  3  0  0  0  0  0  0
   38.8212   59.9135   30.6445 N   0  0  0  0  0  0  0  0  0  0  0  0
   38.7556   60.2223   32.0653 C   0  0  0  0  0  0  0  0  0  0  0  0
   39.6663   61.4122   32.4697 C   0  0  2  0  0  0  0  0  0  0  0  0
   41.1167   60.8718   32.2760 C   0  0  0  0  0  0  0  0  0  0  0  0
   39.5081   61.9315   33.8965 C   0  0  0  0  0  0  0  0  0  0  0  0
   38.1645   62.4161   34.1192 N   0  0  0  0  0  0  0  0  0  0  0  0
   37.8401   63.5574   34.7333 C   0  0  0  0  0  3  0  0  0  0  0  0
   36.6052   63.9110   35.1027 N   0  0  0  0  0  2  0  0  0  0  0  0
   36.6955   64.9631   35.8770 C   0  0  0  0  0  3  0  0  0  0  0  0
   37.8544   65.6335   35.8652 C   0  0  0  0  0  3  0  0  0  0  0  0
   39.1379   64.7429   35.0484 S   0  0  0  0  0  0  0  0  0  0  0  0
   37.9170   66.8927   36.4031 C   0  0  0  0  0  3  0  0  0  0  0  0
   36.8742   67.4323   37.1553 C   0  0  0  0  0  3  0  0  0  0  0  0
   35.6786   66.7544   37.3223 C   0  0  0  0  0  3  0  0  0  0  0  0
   35.5958   65.4844   36.6015 C   0  0  0  0  0  3  0  0  0  0  0  0
   37.2201   68.7733   37.7706 C   0  0  0  0  0  3  0  0  0  0  0  0
   38.4069   69.1696   37.9700 O   0  0  0  0  0  1  0  0  0  0  0  0
   36.2150   69.4890   38.3828 N   0  0  0  0  0  0  0  0  0  0  0  0
   36.3866   70.7886   39.1202 C   0  0  0  0  0  0  0  0  0  0  0  0
   36.6149   70.6616   40.5522 C   0  0  0  0  0  3  0  0  0  0  0  0
   36.4775   69.6216   41.2586 N   0  0  0  0  0  2  0  0  0  0  0  0
   36.9989   69.8307   42.5181 N   0  0  0  0  0  2  0  0  0  0  0  0
   37.6313   70.9845   42.4444 C   0  0  0  0  0  3  0  0  0  0  0  0
   37.3602   71.6067   41.2312 N   0  0  0  0  0  0  0  0  0  0  0  0
   38.0093   72.8436   40.7826 C   0  0  0  0  0  0  0  0  0  0  0  0
   38.0334   57.7047   31.2525 N   0  0  0  0  0  2  0  0  0  0  0  0
   37.4244   56.6112   30.7411 C   0  0  0  0  0  3  0  0  0  0  0  0
   35.1376   55.9559   28.0662 H   0  0  0  0  0  0  0  0  0  0  0  0
   35.4786   55.9427   27.2105 H   0  0  0  0  0  0  0  0  0  0  0  0
   35.2941   54.2345   27.4196 H   0  0  0  0  0  0  0  0  0  0  0  0
   36.0389   57.8952   27.9581 H   0  0  0  0  0  0  0  0  0  0  0  0
   38.8459   60.6861   29.9914 H   0  0  0  0  0  0  0  0  0  0  0  0
   37.7635   60.5920   32.3526 H   0  0  0  0  0  0  0  0  0  0  0  0
   39.0372   59.3312   32.6398 H   0  0  0  0  0  0  0  0  0  0  0  0
   39.6118   62.2508   31.7646 H   0  0  0  0  0  0  0  0  0  0  0  0
   41.7690   61.7441   32.4065 H   0  0  0  0  0  0  0  0  0  0  0  0
   41.3557   60.0835   33.0005 H   0  0  0  0  0  0  0  0  0  0  0  0
   41.3011   60.5232   31.2523 H   0  0  0  0  0  0  0  0  0  0  0  0
   39.7269   61.1783   34.6636 H   0  0  0  0  0  0  0  0  0  0  0  0
   40.2145   62.7473   34.0940 H   0  0  0  0  0  0  0  0  0  0  0  0
   37.4421   61.7084   34.1578 H   0  0  0  0  0  0  0  0  0  0  0  0
   38.8739   67.3946   36.2943 H   0  0  0  0  0  0  0  0  0  0  0  0
   34.8333   67.1565   37.8729 H   0  0  0  0  0  0  0  0  0  0  0  0
   34.7152   64.8718   36.7708 H   0  0  0  0  0  0  0  0  0  0  0  0
   35.2656   69.2530   38.1199 H   0  0  0  0  0  0  0  0  0  0  0  0
   37.2419   71.2960   38.6572 H   0  0  0  0  0  0  0  0  0  0  0  0
   35.4176   71.2968   39.0414 H   0  0  0  0  0  0  0  0  0  0  0  0
   38.1244   71.4906   43.2639 H   0  0  0  0  0  0  0  0  0  0  0  0
   38.2549   73.4750   41.6455 H   0  0  0  0  0  0  0  0  0  0  0  0
   39.0078   72.6150   40.3899 H   0  0  0  0  0  0  0  0  0  0  0  0
   37.3551   73.2946   40.0263 H   0  0  0  0  0  0  0  0  0  0  0  0
   37.4606   55.6656   31.2802 H   0  0  0  0  0  0  0  0  0  0  0  0
 32 33  1  0
 30 31  1  0
 29 30  1  0
 28 29  1  0
 27 28  1  0
 26 27  1  0
 26 30  1  0
 25 26  1  0
 24 25  1  0
 22 23  1  0
 22 24  1  0
 20 21  1  0
 19 20  1  0
 19 22  1  0
 18 19  1  0
 16 17  1  0
 16 18  1  0
 15 16  1  0
 15 21  1  0
 14 15  1  0
 13 14  1  0
 13 17  1  0
 12 13  1  0
 11 12  1  0
  9 10  1  0
  9 11  1  0
  8  9  1  0
  7  8  1  0
  6  7  1  0
  6 32  1  0
  5  6  1  0
  4  5  1  0
  3  4  1  0
  3 33  1  0
  2  3  1  0
  1  2  1  0
 33 58  1  0
 31 55  1  0
 31 56  1  0
 31 57  1  0
 29 54  1  0
 25 52  1  0
 25 53  1  0
 24 51  1  0
 21 50  1  0
 20 49  1  0
 18 48  1  0
 12 47  1  0
 11 45  1  0
 11 46  1  0
 10 42  1  0
 10 43  1  0
 10 44  1  0
  9 41  1  6
  8 39  1  0
  8 40  1  0
  7 38  1  0
  4 37  1  0
  1 34  1  0
  1 35  1  0
  1 36  1  0
M  RAD  8   3   2   4   2   6   2  13   2  15   2  16   2  18   2  19   2
M  CHG  6   5  -1  14  -1  23  -1  27  -1  28  -1  32  -1
M  RAD  6  20   2  21   2  22   2  26   2  29   2  33   2
M  END
>  <_TriposChargeType>  (1) 
USER_CHARGES

$$$$
