@<TRIPOS>MOLECULE
Cpptraj Generated mol2 file.
   58    61     1     0     0
SMALL
USER_CHARGES


@<TRIPOS>ATOM
      1 C1         36.3596   54.1891   21.9827 aa         1 L1      -0.190073
      2 S1         37.1720   53.6227   23.6267 ab         1 L1      -0.238208
      3 C2         37.7240   55.1248   24.3682 ad         1 L1       0.100299
      4 C3         37.8462   56.3938   23.7645 ae         1 L1      -0.074245
      5 N1         38.3583   57.4583   24.4277 af         1 L1      -0.247033
      6 C4         38.7337   57.3200   25.6812 ah         1 L1       0.321183
      7 N2         39.3314   58.3680   26.2407 ai         1 L1      -0.552464
      8 C5         39.2658   58.6768   27.6615 aj         1 L1       0.053246
      9 C6         40.1765   59.8667   28.0659 ak         1 L1       0.134518
     10 C7         41.6269   59.3263   27.8722 an         1 L1      -0.296175
     11 C8         40.0183   60.3860   29.4927 ao         1 L1       0.055717
     12 N3         38.6747   60.8706   29.7154 ap         1 L1      -0.486534
     13 C9         38.3503   62.0119   30.3295 aq         1 L1       0.223782
     14 N4         37.1154   62.3655   30.6989 av         1 L1      -0.264280
     15 C10        37.2057   63.4176   31.4732 aw         1 L1       0.124514
     16 C11        38.3646   64.0880   31.4614 ax         1 L1       0.076566
     17 S2         39.6481   63.1974   30.6446 ay         1 L1      -0.124584
     18 C12        38.4272   65.3472   31.9993 az         1 L1      -0.244849
     19 C13        37.3844   65.8868   32.7515 bb         1 L1       0.008125
     20 C14        36.1888   65.2089   32.9185 bc         1 L1      -0.202665
     21 C15        36.1060   63.9389   32.1977 bd         1 L1      -0.207023
     22 C16        37.7303   67.2278   33.3668 bf         1 L1       0.672889
     23 O1         38.9171   67.6241   33.5662 bg         1 L1      -0.617874
     24 N5         36.7252   67.9435   33.9790 bh         1 L1      -0.533717
     25 C17        36.8968   69.2431   34.7164 bj         1 L1       0.128508
     26 C18        37.1251   69.1161   36.1484 bk         1 L1       0.026608
     27 N6         36.9877   68.0761   36.8548 bl         1 L1      -0.193658
     28 N7         37.5091   68.2852   38.1143 bm         1 L1      -0.168382
     29 C19        38.1415   69.4390   38.0406 bn         1 L1      -0.096567
     30 N8         37.8704   70.0612   36.8274 bo         1 L1      -0.051153
     31 C20        38.5195   71.2981   36.3788 bp         1 L1      -0.149219
     32 N9         38.6326   56.1995   26.4120 bq         1 L1      -0.247033
     33 C21        38.0664   55.1225   25.7362 bs         1 L1      -0.074245
     34 H1         35.6975   55.0359   22.2016 bt         1 L1       0.111371
     35 H2         37.1647   54.5476   21.3295 bu         1 L1       0.111371
     36 H3         35.8540   53.3145   21.5550 bv         1 L1       0.111371
     37 H4         37.5605   56.5114   22.7202 bw         1 L1       0.140668
     38 H5         39.3621   59.1567   25.6074 bx         1 L1       0.357500
     39 H6         38.2737   59.0465   27.9488 by         1 L1       0.066554
     40 H7         39.5474   57.7857   28.2360 bz         1 L1       0.066554
     41 H8         40.1220   60.7053   27.3608 cb         1 L1       0.011715
     42 H9         42.2792   60.1986   28.0027 ci         1 L1       0.081511
     43 H10        41.8659   58.5380   28.5967 cj         1 L1       0.081511
     44 H11        41.8113   58.9777   26.8485 ck         1 L1       0.081511
     45 H12        40.2371   59.6328   30.2598 cm         1 L1       0.068673
     46 H13        40.7247   61.2018   29.6902 cn         1 L1       0.068673
     47 H14        37.9523   60.1629   29.7540 ct         1 L1       0.363118
     48 H15        39.3841   65.8491   31.8905 cw         1 L1       0.170149
     49 H16        35.3435   65.6110   33.4691 da         1 L1       0.155558
     50 H17        35.2254   63.3263   32.3670 db         1 L1       0.161782
     51 H18        35.7758   67.7075   33.7161 dc         1 L1       0.320492
     52 H19        37.7521   69.7505   34.2534 dd         1 L1       0.073984
     53 H20        35.9278   69.7513   34.6376 de         1 L1       0.073984
     54 H21        38.6346   69.9451   38.8601 df         1 L1       0.206460
     55 H22        38.7651   71.9295   37.2417 dg         1 L1       0.102951
     56 H23        39.5180   71.0695   35.9861 dh         1 L1       0.102951
     57 H24        37.8653   71.7491   35.6225 di         1 L1       0.102951
     58 H25        37.9757   54.1668   26.2504 dj         1 L1       0.140668
@<TRIPOS>BOND
    1    32    33 1
    2    30    31 1
    3    29    30 1
    4    28    29 1
    5    27    28 1
    6    26    27 1
    7    26    30 1
    8    25    26 1
    9    24    25 1
   10    22    23 1
   11    22    24 1
   12    20    21 1
   13    19    20 1
   14    19    22 1
   15    18    19 1
   16    16    17 1
   17    16    18 1
   18    15    16 1
   19    15    21 1
   20    14    15 1
   21    13    14 1
   22    13    17 1
   23    12    13 1
   24    11    12 1
   25     9    10 1
   26     9    11 1
   27     8     9 1
   28     7     8 1
   29     6     7 1
   30     6    32 1
   31     5     6 1
   32     4     5 1
   33     3     4 1
   34     3    33 1
   35     2     3 1
   36     1     2 1
   37    33    58 1
   38    31    55 1
   39    31    56 1
   40    31    57 1
   41    29    54 1
   42    25    52 1
   43    25    53 1
   44    24    51 1
   45    21    50 1
   46    20    49 1
   47    18    48 1
   48    12    47 1
   49    11    45 1
   50    11    46 1
   51    10    42 1
   52    10    43 1
   53    10    44 1
   54     9    41 1
   55     8    39 1
   56     8    40 1
   57     7    38 1
   58     4    37 1
   59     1    34 1
   60     1    35 1
   61     1    36 1
@<TRIPOS>SUBSTRUCTURE
      1 L1                1 ****               0 ****  **** 
