@<TRIPOS>MOLECULE
Cpptraj Generated mol2 file.
   56    59     1     0     0
SMALL
USER_CHARGES


@<TRIPOS>ATOM
      1 C1         39.2970   61.8133   32.1115 aa         1 L1      -0.047612
      2 C2         39.1011   60.3496   31.9940 ab         1 L1       0.123865
      3 C3         40.3470   59.7359   32.6488 ad         1 L1      -0.039637
      4 C4         40.8214   60.8222   33.6316 ae         1 L1      -0.039637
      5 C5         40.0887   62.1551   33.3185 af         1 L1       0.123865
      6 N1         39.2226   62.6604   34.4136 ah         1 L1      -0.562952
      7 C6         38.8881   63.9543   34.6077 ai         1 L1       0.291371
      8 N2         39.9245   64.8643   34.4928 aj         1 L1      -0.217600
      9 C7         39.6860   66.1896   34.6078 ak         1 L1      -0.080435
     10 C8         38.3903   66.6254   34.9349 an         1 L1       0.097130
     11 N3         38.1203   67.9944   35.0530 ao         1 L1      -0.072122
     12 C9         38.0265   68.9576   34.0333 ap         1 L1       0.583575
     13 C10        37.5728   70.2634   34.4578 aq         1 L1      -0.226646
     14 C11        37.2299   70.6113   35.7231 av         1 L1      -0.089734
     15 C12        37.1152   69.5574   36.7153 aw         1 L1      -0.131942
     16 C13        37.5400   68.2633   36.3311 ax         1 L1      -0.092934
     17 O1         38.4231   68.6958   32.8901 ay         1 L1      -0.631959
     18 C14        37.3267   65.7084   35.0074 az         1 L1      -0.187812
     19 C15        37.5582   64.3591   34.8177 bb         1 L1      -0.210341
     20 N4         38.8212   59.9135   30.6445 bc         1 L1      -0.567917
     21 C16        38.0553   58.7801   30.3847 bd         1 L1       0.315762
     22 N5         37.3301   58.8703   29.1875 bf         1 L1      -0.250085
     23 C17        36.6605   57.7603   28.8420 bg         1 L1      -0.093703
     24 C18        36.7096   56.5410   29.5201 bh         1 L1       0.184866
     25 C19        37.4244   56.6112   30.7411 bj         1 L1      -0.093703
     26 N6         38.0334   57.7047   31.2525 bk         1 L1      -0.250085
     27 O2         36.0211   55.4673   29.1389 bl         1 L1      -0.401079
     28 C20        35.7997   55.1091   27.8473 bm         1 L1       0.395224
     29 C21        37.1484   54.4916   27.3844 bn         1 L1      -0.303228
     30 C22        34.6600   54.0726   27.8678 bo         1 L1      -0.303228
     31 H1         38.3601   62.3817   32.0611 bp         1 L1       0.035696
     32 H2         39.8593   62.1908   31.2485 bq         1 L1       0.035696
     33 H3         38.2755   60.0811   32.6646 bs         1 L1       0.080153
     34 H4         41.1198   59.4242   31.9354 bt         1 L1       0.028979
     35 H5         40.0501   58.8591   33.2375 bu         1 L1       0.028979
     36 H6         40.5753   60.5893   34.6749 bv         1 L1       0.028979
     37 H7         41.9060   60.9711   33.7011 bw         1 L1       0.028979
     38 H8         40.8179   62.9383   33.0770 bx         1 L1       0.080153
     39 H9         38.4322   62.1024   34.7103 by         1 L1       0.342797
     40 H10        40.4593   66.9427   34.4640 bz         1 L1       0.158448
     41 H11        37.7323   70.9933   33.6724 cb         1 L1       0.133335
     42 H12        37.0826   71.6612   35.9491 ci         1 L1       0.116629
     43 H13        36.8479   69.7023   37.7558 cj         1 L1       0.116591
     44 H14        37.6948   67.4529   37.0311 ck         1 L1       0.144820
     45 H15        36.2777   65.9518   35.1480 cm         1 L1       0.145764
     46 H16        36.7700   63.6133   34.8640 cn         1 L1       0.140509
     47 H17        38.8459   60.6861   29.9914 ct         1 L1       0.354444
     48 H18        36.0389   57.8952   27.9581 cw         1 L1       0.141590
     49 H19        37.4606   55.6656   31.2802 da         1 L1       0.141590
     50 H20        35.4786   55.9427   27.2105 db         1 L1       0.000784
     51 H21        37.1240   54.3665   26.2948 dc         1 L1       0.082303
     52 H22        38.0830   55.0391   27.5579 dd         1 L1       0.082303
     53 H23        37.2756   53.4849   27.8013 de         1 L1       0.082303
     54 H24        33.8284   54.5437   28.4062 df         1 L1       0.082303
     55 H25        34.3694   53.7357   26.8650 dg         1 L1       0.082303
     56 H26        34.9550   53.1889   28.4470 dh         1 L1       0.082303
@<TRIPOS>BOND
    1    28    29 1
    2    28    30 1
    3    27    28 1
    4    25    26 1
    5    24    25 1
    6    24    27 1
    7    23    24 1
    8    22    23 1
    9    21    22 1
   10    21    26 1
   11    20    21 1
   12    18    19 1
   13    15    16 1
   14    14    15 1
   15    13    14 1
   16    12    13 1
   17    12    17 1
   18    11    12 1
   19    11    16 1
   20    10    11 1
   21    10    18 1
   22     9    10 1
   23     8     9 1
   24     7     8 1
   25     7    19 1
   26     6     7 1
   27     5     6 1
   28     4     5 1
   29     3     4 1
   30     2     3 1
   31     2    20 1
   32     1     2 1
   33     1     5 1
   34    30    54 1
   35    30    55 1
   36    30    56 1
   37    29    51 1
   38    29    52 1
   39    29    53 1
   40    28    50 1
   41    25    49 1
   42    23    48 1
   43    20    47 1
   44    19    46 1
   45    18    45 1
   46    16    44 1
   47    15    43 1
   48    14    42 1
   49    13    41 1
   50     9    40 1
   51     6    39 1
   52     5    38 1
   53     4    36 1
   54     4    37 1
   55     3    34 1
   56     3    35 1
   57     2    33 1
   58     1    31 1
   59     1    32 1
@<TRIPOS>SUBSTRUCTURE
      1 L1                1 ****               0 ****  **** 
