Cpptraj Generated mol2 file.
     RDKit          3D

 49 52  0  0  0  0  0  0  0  0999 V2000
   35.7997   55.1091   27.8473 C   0  0  0  0  0  0  0  0  0  0  0  0
   36.0211   55.4673   29.1389 S   0  0  0  0  0  0  0  0  0  0  0  0
   36.7096   56.5410   29.5201 C   0  0  0  0  0  3  0  0  0  0  0  0
   36.6605   57.7603   28.8420 C   0  0  0  0  0  3  0  0  0  0  0  0
   37.3301   58.8703   29.1875 N   0  0  0  0  0  2  0  0  0  0  0  0
   38.0553   58.7801   30.3847 C   0  0  0  0  0  3  0  0  0  0  0  0
   38.8212   59.9135   30.6445 N   0  0  0  0  0  0  0  0  0  0  0  0
   39.6847   60.1506   31.8529 C   0  0  0  0  0  0  0  0  0  0  0  0
   40.7013   61.3131   31.6257 C   0  0  2  0  0  0  0  0  0  0  0  0
   41.6640   60.8527   30.5632 C   0  0  0  0  0  0  0  0  0  0  0  0
   41.3621   61.6868   33.0601 C   0  0  0  0  0  0  0  0  0  0  0  0
   40.2707   62.0728   33.9291 N   0  0  0  0  0  0  0  0  0  0  0  0
   40.1113   63.3542   34.4763 C   0  0  0  0  0  3  0  0  0  0  0  0
   39.0730   63.5753   35.3248 N   0  0  0  0  0  2  0  0  0  0  0  0
   39.3278   64.8375   35.8682 C   0  0  0  0  0  3  0  0  0  0  0  0
   40.4430   65.4618   35.4805 C   0  0  0  0  0  3  0  0  0  0  0  0
   41.2994   64.6312   34.1824 S   0  0  0  0  0  0  0  0  0  0  0  0
   40.7322   66.8301   35.8741 C   0  0  0  0  0  3  0  0  0  0  0  0
   39.7305   67.4298   36.6091 C   0  0  0  0  0  3  0  0  0  0  0  0
   38.5632   66.7667   36.9840 C   0  0  0  0  0  3  0  0  0  0  0  0
   38.3501   65.4516   36.6393 C   0  0  0  0  0  3  0  0  0  0  0  0
   39.9458   68.8948   37.0162 C   0  0  0  0  0  3  0  0  0  0  0  0
   38.9352   69.7613   37.2569 C   0  0  0  0  0  3  0  0  0  0  0  0
   39.6565   70.8829   37.5132 N   0  0  0  0  0  0  0  0  0  0  0  0
   41.0493   70.6624   37.3853 N   0  0  0  0  0  2  0  0  0  0  0  0
   41.2147   69.4183   37.1173 C   0  0  0  0  0  3  0  0  0  0  0  0
   38.0334   57.7047   31.2525 N   0  0  0  0  0  2  0  0  0  0  0  0
   37.4244   56.6112   30.7411 C   0  0  0  0  0  3  0  0  0  0  0  0
   35.2104   55.8426   27.2832 H   0  0  0  0  0  0  0  0  0  0  0  0
   36.8679   55.3584   27.8347 H   0  0  0  0  0  0  0  0  0  0  0  0
   35.4786   55.9427   27.2105 H   0  0  0  0  0  0  0  0  0  0  0  0
   36.0389   57.8952   27.9581 H   0  0  0  0  0  0  0  0  0  0  0  0
   38.8459   60.6861   29.9914 H   0  0  0  0  0  0  0  0  0  0  0  0
   39.0311   60.1799   32.7334 H   0  0  0  0  0  0  0  0  0  0  0  0
   40.3281   59.2700   31.9718 H   0  0  0  0  0  0  0  0  0  0  0  0
   40.2365   62.2181   31.2153 H   0  0  0  0  0  0  0  0  0  0  0  0
   42.0410   61.7674   30.0893 H   0  0  0  0  0  0  0  0  0  0  0  0
   42.4982   60.3242   31.0410 H   0  0  0  0  0  0  0  0  0  0  0  0
   41.2092   60.3486   29.7016 H   0  0  0  0  0  0  0  0  0  0  0  0
   41.9267   60.8329   33.4545 H   0  0  0  0  0  0  0  0  0  0  0  0
   42.0244   62.5413   32.8746 H   0  0  0  0  0  0  0  0  0  0  0  0
   39.5572   61.4204   34.2279 H   0  0  0  0  0  0  0  0  0  0  0  0
   41.5752   67.4213   35.5289 H   0  0  0  0  0  0  0  0  0  0  0  0
   37.8622   67.3537   37.5701 H   0  0  0  0  0  0  0  0  0  0  0  0
   37.3927   64.9751   36.8281 H   0  0  0  0  0  0  0  0  0  0  0  0
   37.8599   69.6615   37.3228 H   0  0  0  0  0  0  0  0  0  0  0  0
   39.3186   71.8019   37.7607 H   0  0  0  0  0  0  0  0  0  0  0  0
   42.2119   69.0594   36.8990 H   0  0  0  0  0  0  0  0  0  0  0  0
   37.4606   55.6656   31.2802 H   0  0  0  0  0  0  0  0  0  0  0  0
 27 28  1  0
 25 26  1  0
 24 25  1  0
 23 24  1  0
 22 23  1  0
 22 26  1  0
 20 21  1  0
 19 20  1  0
 19 22  1  0
 18 19  1  0
 16 17  1  0
 16 18  1  0
 15 16  1  0
 15 21  1  0
 14 15  1  0
 13 14  1  0
 13 17  1  0
 12 13  1  0
 11 12  1  0
  9 10  1  0
  9 11  1  0
  8  9  1  0
  7  8  1  0
  6  7  1  0
  6 27  1  0
  5  6  1  0
  4  5  1  0
  3  4  1  0
  3 28  1  0
  2  3  1  0
  1  2  1  0
 28 49  1  0
 26 48  1  0
 24 47  1  0
 23 46  1  0
 21 45  1  0
 20 44  1  0
 18 43  1  0
 12 42  1  0
 11 40  1  0
 11 41  1  0
 10 37  1  0
 10 38  1  0
 10 39  1  0
  9 36  1  6
  8 34  1  0
  8 35  1  0
  7 33  1  0
  4 32  1  0
  1 29  1  0
  1 30  1  0
  1 31  1  0
M  RAD  8   3   2   4   2   6   2  13   2  15   2  16   2  18   2  19   2
M  CHG  4   5  -1  14  -1  25  -1  27  -1
M  RAD  6  20   2  21   2  22   2  23   2  26   2  28   2
M  END
>  <_TriposChargeType>  (1) 
USER_CHARGES

$$$$
