@<TRIPOS>MOLECULE
Cpptraj Generated mol2 file.
   49    52     1     0     0
SMALL
USER_CHARGES


@<TRIPOS>ATOM
      1 C1         34.7734   55.2796   30.1724 aa         1 L1      -0.189569
      2 S1         34.3026   55.3153   31.9688 ab         1 L1      -0.239271
      3 C2         34.9454   56.8902   32.5371 ad         1 L1       0.100252
      4 C3         34.8724   58.0592   31.7089 ae         1 L1      -0.074248
      5 N1         35.1401   59.2800   32.2673 af         1 L1      -0.247398
      6 C4         35.5269   59.3794   33.5566 ah         1 L1       0.321190
      7 N2         35.6834   60.6608   33.9868 ai         1 L1      -0.552219
      8 C5         36.5469   60.8979   35.1952 aj         1 L1       0.054065
      9 C6         37.5635   62.0604   34.9680 ak         1 L1       0.134764
     10 C7         38.5262   61.6000   33.9055 an         1 L1      -0.296181
     11 C8         38.2243   62.4341   36.4024 ao         1 L1       0.058361
     12 N3         37.1329   62.8201   37.2714 ap         1 L1      -0.494179
     13 C9         36.9735   64.1015   37.8186 aq         1 L1       0.225116
     14 N4         35.9352   64.3226   38.6671 av         1 L1      -0.268045
     15 C10        36.1900   65.5848   39.2105 aw         1 L1       0.118190
     16 C11        37.3052   66.2091   38.8228 ax         1 L1       0.076583
     17 S2         38.1616   65.3785   37.5247 ay         1 L1      -0.146936
     18 C12        37.5944   67.5774   39.2164 az         1 L1      -0.264250
     19 C13        36.5927   68.1771   39.9514 bb         1 L1       0.154955
     20 C14        35.4254   67.5140   40.3263 bc         1 L1      -0.204071
     21 C15        35.2123   66.1989   39.9816 bd         1 L1      -0.208687
     22 C16        36.8080   69.6421   40.3585 bf         1 L1      -0.043300
     23 C17        35.7974   70.5086   40.5992 bg         1 L1      -0.150396
     24 N5         36.5187   71.6302   40.8555 bh         1 L1      -0.195532
     25 N6         37.9115   71.4097   40.7276 bj         1 L1      -0.165294
     26 C18        38.0769   70.1656   40.4596 bk         1 L1      -0.134660
     27 N7         35.7616   58.3110   34.3986 bl         1 L1      -0.247398
     28 C19        35.5020   57.0876   33.9054 bm         1 L1      -0.074248
     29 H1         34.1841   56.0131   29.6083 bn         1 L1       0.111306
     30 H2         35.8416   55.5289   30.1598 bo         1 L1       0.111306
     31 H3         34.4792   54.2835   29.8192 bp         1 L1       0.111306
     32 H4         34.6042   58.0905   30.6539 bq         1 L1       0.140409
     33 H5         35.7764   61.3201   33.2246 bs         1 L1       0.356516
     34 H6         35.8933   60.9272   36.0757 bt         1 L1       0.066315
     35 H7         37.1903   60.0173   35.3141 bu         1 L1       0.066315
     36 H8         37.0987   62.9654   34.5576 bv         1 L1       0.011191
     37 H9         38.9032   62.5147   33.4316 bw         1 L1       0.081016
     38 H10        39.3604   61.0715   34.3833 bx         1 L1       0.081016
     39 H11        38.0714   61.0959   33.0439 by         1 L1       0.081016
     40 H12        38.7889   61.5802   36.7968 bz         1 L1       0.066418
     41 H13        38.8866   63.2886   36.2169 cb         1 L1       0.066418
     42 H14        36.4194   62.1677   37.5702 ci         1 L1       0.360037
     43 H15        38.4374   68.1686   38.8712 cj         1 L1       0.142465
     44 H16        34.7244   68.1010   40.9124 ck         1 L1       0.146367
     45 H17        34.2549   65.7224   40.1704 cm         1 L1       0.154127
     46 H18        34.7221   70.4088   40.6651 cn         1 L1       0.163464
     47 H19        36.1808   72.5492   41.1030 ct         1 L1       0.331700
     48 H20        39.0741   69.8067   40.2413 cw         1 L1       0.163292
     49 H21        35.6648   56.2104   34.5298 da         1 L1       0.140409
@<TRIPOS>BOND
    1    27    28 1
    2    25    26 1
    3    24    25 1
    4    23    24 1
    5    22    23 1
    6    22    26 1
    7    20    21 1
    8    19    20 1
    9    19    22 1
   10    18    19 1
   11    16    17 1
   12    16    18 1
   13    15    16 1
   14    15    21 1
   15    14    15 1
   16    13    14 1
   17    13    17 1
   18    12    13 1
   19    11    12 1
   20     9    10 1
   21     9    11 1
   22     8     9 1
   23     7     8 1
   24     6     7 1
   25     6    27 1
   26     5     6 1
   27     4     5 1
   28     3     4 1
   29     3    28 1
   30     2     3 1
   31     1     2 1
   32    28    49 1
   33    26    48 1
   34    24    47 1
   35    23    46 1
   36    21    45 1
   37    20    44 1
   38    18    43 1
   39    12    42 1
   40    11    40 1
   41    11    41 1
   42    10    37 1
   43    10    38 1
   44    10    39 1
   45     9    36 1
   46     8    34 1
   47     8    35 1
   48     7    33 1
   49     4    32 1
   50     1    29 1
   51     1    30 1
   52     1    31 1
@<TRIPOS>SUBSTRUCTURE
      1 L1                1 ****               0 ****  **** 
