Cpptraj Generated mol2 file.
     RDKit          3D

 52 55  0  0  0  0  0  0  0  0999 V2000
   35.7997   55.1091   27.8473 C   0  0  0  0  0  0  0  0  0  0  0  0
   36.0211   55.4673   29.1389 S   0  0  0  0  0  0  0  0  0  0  0  0
   36.7096   56.5410   29.5201 C   0  0  0  0  0  3  0  0  0  0  0  0
   37.4244   56.6112   30.7411 C   0  0  0  0  0  3  0  0  0  0  0  0
   38.0334   57.7047   31.2525 N   0  0  0  0  0  2  0  0  0  0  0  0
   38.0553   58.7801   30.3847 C   0  0  0  0  0  3  0  0  0  0  0  0
   38.8212   59.9135   30.6445 N   0  0  0  0  0  0  0  0  0  0  0  0
   39.7298   59.9972   31.8403 C   0  0  0  0  0  0  0  0  0  0  0  0
   40.7659   61.1077   31.6455 C   0  0  2  0  0  0  0  0  0  0  0  0
   41.6483   60.7434   30.4253 C   0  0  0  0  0  0  0  0  0  0  0  0
   41.5782   61.4644   32.9774 C   0  0  0  0  0  0  0  0  0  0  0  0
   40.5963   61.9093   33.9926 N   0  0  0  0  0  0  0  0  0  0  0  0
   40.7236   63.1463   34.6417 C   0  0  0  0  0  3  0  0  0  0  0  0
   41.6784   64.0088   34.2560 N   0  0  0  0  0  2  0  0  0  0  0  0
   41.5672   65.0663   35.0443 C   0  0  0  0  0  3  0  0  0  0  0  0
   40.5152   65.0697   35.9180 C   0  0  0  0  0  3  0  0  0  0  0  0
   39.5956   63.6058   35.8749 S   0  0  0  0  0  0  0  0  0  0  0  0
   40.2275   66.1919   36.8328 C   0  0  0  0  0  3  0  0  0  0  0  0
   41.1949   67.2018   36.7053 C   0  0  0  0  0  3  0  0  0  0  0  0
   42.3794   67.0962   35.8966 C   0  0  0  0  0  3  0  0  0  0  0  0
   42.5222   66.0543   34.9725 C   0  0  0  0  0  3  0  0  0  0  0  0
   40.9206   68.3123   37.5278 C   0  0  0  0  0  3  0  0  0  0  0  0
   41.7210   68.9389   38.4567 C   0  0  0  0  0  3  0  0  0  0  0  0
   40.9125   69.9516   38.9692 N   0  0  0  0  0  0  0  0  0  0  0  0
   41.3061   70.9669   39.9243 C   0  0  0  0  0  0  0  0  0  0  0  0
   39.6105   69.8017   38.5750 N   0  0  0  0  0  2  0  0  0  0  0  0
   39.6432   68.7756   37.6757 C   0  0  0  0  0  3  0  0  0  0  0  0
   37.3301   58.8703   29.1875 N   0  0  0  0  0  2  0  0  0  0  0  0
   36.6605   57.7603   28.8420 C   0  0  0  0  0  3  0  0  0  0  0  0
   35.4281   54.1263   27.5322 H   0  0  0  0  0  0  0  0  0  0  0  0
   34.8735   55.6751   28.0062 H   0  0  0  0  0  0  0  0  0  0  0  0
   35.4786   55.9427   27.2105 H   0  0  0  0  0  0  0  0  0  0  0  0
   37.4606   55.6656   31.2802 H   0  0  0  0  0  0  0  0  0  0  0  0
   38.8459   60.6861   29.9914 H   0  0  0  0  0  0  0  0  0  0  0  0
   39.0798   60.1842   32.7039 H   0  0  0  0  0  0  0  0  0  0  0  0
   40.3094   59.0702   31.9310 H   0  0  0  0  0  0  0  0  0  0  0  0
   40.2584   62.0313   31.3406 H   0  0  0  0  0  0  0  0  0  0  0  0
   42.1000   61.6805   30.0772 H   0  0  0  0  0  0  0  0  0  0  0  0
   42.5782   60.2651   30.7567 H   0  0  0  0  0  0  0  0  0  0  0  0
   41.1691   60.2278   29.5839 H   0  0  0  0  0  0  0  0  0  0  0  0
   42.1928   60.6395   33.3585 H   0  0  0  0  0  0  0  0  0  0  0  0
   42.1775   62.3439   32.7111 H   0  0  0  0  0  0  0  0  0  0  0  0
   39.7642   61.3731   34.2031 H   0  0  0  0  0  0  0  0  0  0  0  0
   39.3254   66.2884   37.4297 H   0  0  0  0  0  0  0  0  0  0  0  0
   43.1422   67.8685   35.9282 H   0  0  0  0  0  0  0  0  0  0  0  0
   43.2860   65.9474   34.2080 H   0  0  0  0  0  0  0  0  0  0  0  0
   42.7650   68.8870   38.7362 H   0  0  0  0  0  0  0  0  0  0  0  0
   41.6882   71.8413   39.3830 H   0  0  0  0  0  0  0  0  0  0  0  0
   40.4511   71.2240   40.5617 H   0  0  0  0  0  0  0  0  0  0  0  0
   42.2537   70.6935   40.4047 H   0  0  0  0  0  0  0  0  0  0  0  0
   38.6973   68.4478   37.2652 H   0  0  0  0  0  0  0  0  0  0  0  0
   36.0389   57.8952   27.9581 H   0  0  0  0  0  0  0  0  0  0  0  0
 28 29  1  0
 26 27  1  0
 24 25  1  0
 24 26  1  0
 23 24  1  0
 22 23  1  0
 22 27  1  0
 20 21  1  0
 19 20  1  0
 19 22  1  0
 18 19  1  0
 16 17  1  0
 16 18  1  0
 15 16  1  0
 15 21  1  0
 14 15  1  0
 13 14  1  0
 13 17  1  0
 12 13  1  0
 11 12  1  0
  9 10  1  0
  9 11  1  0
  8  9  1  0
  7  8  1  0
  6  7  1  0
  6 28  1  0
  5  6  1  0
  4  5  1  0
  3  4  1  0
  3 29  1  0
  2  3  1  0
  1  2  1  0
 29 52  1  0
 27 51  1  0
 25 48  1  0
 25 49  1  0
 25 50  1  0
 23 47  1  0
 21 46  1  0
 20 45  1  0
 18 44  1  0
 12 43  1  0
 11 41  1  0
 11 42  1  0
 10 38  1  0
 10 39  1  0
 10 40  1  0
  9 37  1  6
  8 35  1  0
  8 36  1  0
  7 34  1  0
  4 33  1  0
  1 30  1  0
  1 31  1  0
  1 32  1  0
M  RAD  8   3   2   4   2   6   2  13   2  15   2  16   2  18   2  19   2
M  CHG  4   5  -1  14  -1  26  -1  28  -1
M  RAD  6  20   2  21   2  22   2  23   2  27   2  29   2
M  END
>  <_TriposChargeType>  (1) 
USER_CHARGES

$$$$
