@<TRIPOS>MOLECULE
Cpptraj Generated mol2 file.
   52    55     1     0     0
SMALL
USER_CHARGES


@<TRIPOS>ATOM
      1 C1         31.6513   52.6086   29.8901 aa         1 L1      -0.189408
      2 S1         32.4948   52.3370   31.5225 ab         1 L1      -0.239352
      3 C2         33.0966   53.9293   32.0272 ad         1 L1       0.100324
      4 C3         33.7773   53.9637   33.2646 ae         1 L1      -0.074415
      5 N1         34.1980   55.0890   33.7240 af         1 L1      -0.246955
      6 C4         34.0576   56.2128   32.9708 ah         1 L1       0.321584
      7 N2         34.4823   57.3772   33.4582 ai         1 L1      -0.552859
      8 C5         35.3909   57.4609   34.6540 aj         1 L1       0.054406
      9 C6         36.4270   58.5714   34.4592 ak         1 L1       0.134046
     10 C7         37.3094   58.2071   33.2390 an         1 L1      -0.295049
     11 C8         37.2393   58.9281   35.7911 ao         1 L1       0.056998
     12 N3         36.2574   59.3730   36.8063 ap         1 L1      -0.494041
     13 C9         36.3847   60.6100   37.4554 aq         1 L1       0.226238
     14 N4         37.3395   61.4725   37.0697 av         1 L1      -0.256293
     15 C10        37.2283   62.5300   37.8580 aw         1 L1       0.115676
     16 C11        36.1763   62.5334   38.7317 ax         1 L1       0.079769
     17 S2         35.2567   61.0695   38.6886 ay         1 L1      -0.163997
     18 C12        35.8886   63.6556   39.6465 az         1 L1      -0.264094
     19 C13        36.8560   64.6655   39.5190 bb         1 L1       0.155713
     20 C14        38.0405   64.5599   38.7103 bc         1 L1      -0.204647
     21 C15        38.1833   63.5180   37.7862 bd         1 L1      -0.208953
     22 C16        36.5817   65.7760   40.3415 bf         1 L1      -0.048537
     23 C17        37.3821   66.4026   41.2704 bg         1 L1      -0.164715
     24 N5         36.5736   67.4153   41.7829 bh         1 L1       0.043529
     25 C18        36.9672   68.4306   42.7380 bj         1 L1      -0.162381
     26 N6         35.2716   67.2654   41.3887 bk         1 L1      -0.184195
     27 C19        35.3043   66.2393   40.4894 bl         1 L1      -0.138533
     28 N7         33.4252   56.2936   31.8013 bm         1 L1      -0.246955
     29 C20        33.0880   55.1491   31.2459 bn         1 L1      -0.074415
     30 H1         31.2797   51.6258   29.5750 bo         1 L1       0.111213
     31 H2         30.7251   53.1746   30.0490 bp         1 L1       0.111213
     32 H3         32.2855   53.0039   29.0869 bq         1 L1       0.111213
     33 H4         33.8183   53.0811   33.9011 bs         1 L1       0.140183
     34 H5         34.7708   58.0586   32.7678 bt         1 L1       0.356346
     35 H6         34.7409   57.6479   35.5176 bu         1 L1       0.065214
     36 H7         35.9705   56.5339   34.7447 bv         1 L1       0.065214
     37 H8         35.9195   59.4950   34.1543 bw         1 L1       0.013669
     38 H9         37.7611   59.1442   32.8909 bx         1 L1       0.080131
     39 H10        38.2393   57.7288   33.5704 by         1 L1       0.080131
     40 H11        36.8302   57.6915   32.3976 bz         1 L1       0.080131
     41 H12        37.8539   58.1032   36.1722 cb         1 L1       0.069143
     42 H13        37.8386   59.8076   35.5248 ci         1 L1       0.069143
     43 H14        35.4253   58.8368   37.0168 cj         1 L1       0.351464
     44 H15        34.9865   63.7521   40.2434 ck         1 L1       0.142779
     45 H16        38.8033   65.3322   38.7419 cm         1 L1       0.145707
     46 H17        38.9471   63.4111   37.0217 cn         1 L1       0.153107
     47 H18        38.4261   66.3507   41.5499 ct         1 L1       0.160221
     48 H19        37.3493   69.3050   42.1967 cw         1 L1       0.105304
     49 H20        36.1122   68.6877   43.3754 da         1 L1       0.105304
     50 H21        37.9148   68.1572   43.2184 db         1 L1       0.105304
     51 H22        34.3584   65.9115   40.0789 dc         1 L1       0.159194
     52 H23        32.6087   55.2234   30.2709 dd         1 L1       0.140183
@<TRIPOS>BOND
    1    28    29 1
    2    26    27 1
    3    24    25 1
    4    24    26 1
    5    23    24 1
    6    22    23 1
    7    22    27 1
    8    20    21 1
    9    19    20 1
   10    19    22 1
   11    18    19 1
   12    16    17 1
   13    16    18 1
   14    15    16 1
   15    15    21 1
   16    14    15 1
   17    13    14 1
   18    13    17 1
   19    12    13 1
   20    11    12 1
   21     9    10 1
   22     9    11 1
   23     8     9 1
   24     7     8 1
   25     6     7 1
   26     6    28 1
   27     5     6 1
   28     4     5 1
   29     3     4 1
   30     3    29 1
   31     2     3 1
   32     1     2 1
   33    29    52 1
   34    27    51 1
   35    25    48 1
   36    25    49 1
   37    25    50 1
   38    23    47 1
   39    21    46 1
   40    20    45 1
   41    18    44 1
   42    12    43 1
   43    11    41 1
   44    11    42 1
   45    10    38 1
   46    10    39 1
   47    10    40 1
   48     9    37 1
   49     8    35 1
   50     8    36 1
   51     7    34 1
   52     4    33 1
   53     1    30 1
   54     1    31 1
   55     1    32 1
@<TRIPOS>SUBSTRUCTURE
      1 L1                1 ****               0 ****  **** 
