Cpptraj Generated mol2 file.
     RDKit          3D

 56 58  0  0  0  0  0  0  0  0999 V2000
   36.0958   52.3880   22.6323 C   0  0  0  0  0  0  0  0  0  0  0  0
   37.5320   52.6209   22.8634 O   0  0  0  0  0  0  0  0  0  0  0  0
   37.8760   53.2377   24.1396 C   0  0  0  0  0  0  0  0  0  0  0  0
   37.6848   54.7733   24.0021 C   0  0  0  0  0  0  0  0  0  0  0  0
   38.0162   55.4912   25.3007 N   0  0  0  0  0  0  0  0  0  0  0  0
   37.2014   55.4678   26.4268 C   0  0  0  0  0  3  0  0  0  0  0  0
   36.1019   54.9421   26.3379 O   0  0  0  0  0  1  0  0  0  0  0  0
   37.7432   56.1804   27.6264 C   0  0  0  0  0  3  0  0  0  0  0  0
   38.2148   57.4835   27.4229 C   0  0  0  0  0  3  0  0  0  0  0  0
   38.8133   58.0844   28.5544 C   0  0  0  0  0  3  0  0  0  0  0  0
   38.7497   57.5933   29.8228 C   0  0  0  0  0  3  0  0  0  0  0  0
   38.1937   56.3041   30.0219 C   0  0  0  0  0  3  0  0  0  0  0  0
   37.7467   55.6899   28.9397 C   0  0  0  0  0  3  0  0  0  0  0  0
   39.2305   58.3662   30.8539 N   0  0  0  0  0  2  0  0  0  0  0  0
   39.6948   59.4817   30.2821 C   0  0  0  0  0  3  0  0  0  0  0  0
   40.4292   60.3592   30.9582 N   0  0  0  0  0  0  0  0  0  0  0  0
   40.3124   60.5271   32.4557 C   0  0  0  0  0  0  0  0  0  0  0  0
   41.0757   61.8314   32.9283 C   0  0  1  0  0  0  0  0  0  0  0  0
   40.9598   63.0180   31.9717 C   0  0  0  0  0  0  0  0  0  0  0  0
   40.7206   62.2375   34.3611 C   0  0  0  0  0  0  0  0  0  0  0  0
   39.2226   62.6604   34.4136 N   0  0  0  0  0  0  0  0  0  0  0  0
   38.8881   63.9543   34.6077 C   0  0  0  0  0  3  0  0  0  0  0  0
   39.9245   64.8643   34.4928 N   0  0  0  0  0  2  0  0  0  0  0  0
   39.6860   66.1896   34.6078 C   0  0  0  0  0  3  0  0  0  0  0  0
   38.3903   66.6254   34.9349 C   0  0  0  0  0  3  0  0  0  0  0  0
   37.6510   68.2911   35.0652 S   0  0  0  0  0  0  0  0  0  0  0  0
   38.0747   68.8831   36.7959 C   0  0  0  0  0  0  0  0  0  0  0  0
   37.3267   65.7084   35.0074 C   0  0  0  0  0  3  0  0  0  0  0  0
   37.5582   64.3591   34.8177 N   0  0  0  0  0  2  0  0  0  0  0  0
   39.4724   59.6184   28.4967 S   0  0  0  0  0  0  0  0  0  0  0  0
   35.9731   51.7046   21.7829 H   0  0  0  0  0  0  0  0  0  0  0  0
   35.6032   52.0803   23.5629 H   0  0  0  0  0  0  0  0  0  0  0  0
   35.6580   53.3544   22.3533 H   0  0  0  0  0  0  0  0  0  0  0  0
   37.2183   52.7851   24.8919 H   0  0  0  0  0  0  0  0  0  0  0  0
   38.9581   53.1164   24.2727 H   0  0  0  0  0  0  0  0  0  0  0  0
   38.3414   55.2367   23.2553 H   0  0  0  0  0  0  0  0  0  0  0  0
   36.6148   54.9689   23.8600 H   0  0  0  0  0  0  0  0  0  0  0  0
   38.8340   56.0878   25.3408 H   0  0  0  0  0  0  0  0  0  0  0  0
   38.3411   57.9335   26.4426 H   0  0  0  0  0  0  0  0  0  0  0  0
   38.2034   56.0068   31.0664 H   0  0  0  0  0  0  0  0  0  0  0  0
   37.3941   54.6806   29.1308 H   0  0  0  0  0  0  0  0  0  0  0  0
   40.5744   61.2510   30.5026 H   0  0  0  0  0  0  0  0  0  0  0  0
   39.2944   60.7424   32.8032 H   0  0  0  0  0  0  0  0  0  0  0  0
   40.7000   59.6455   32.9809 H   0  0  0  0  0  0  0  0  0  0  0  0
   42.1188   61.4938   32.8920 H   0  0  0  0  0  0  0  0  0  0  0  0
   41.5451   62.8290   31.0633 H   0  0  0  0  0  0  0  0  0  0  0  0
   39.9061   63.1139   31.6821 H   0  0  0  0  0  0  0  0  0  0  0  0
   41.3809   63.9779   32.2950 H   0  0  0  0  0  0  0  0  0  0  0  0
   40.9141   61.3063   34.9078 H   0  0  0  0  0  0  0  0  0  0  0  0
   41.3570   63.0188   34.7947 H   0  0  0  0  0  0  0  0  0  0  0  0
   38.4322   62.1024   34.7103 H   0  0  0  0  0  0  0  0  0  0  0  0
   40.4593   66.9427   34.4640 H   0  0  0  0  0  0  0  0  0  0  0  0
   37.4988   68.2744   37.5039 H   0  0  0  0  0  0  0  0  0  0  0  0
   39.1293   68.7792   37.0797 H   0  0  0  0  0  0  0  0  0  0  0  0
   37.7144   69.8899   37.0405 H   0  0  0  0  0  0  0  0  0  0  0  0
   36.3486   65.9376   34.5869 H   0  0  0  0  0  0  0  0  0  0  0  0
 28 29  1  0
 26 27  1  0
 25 26  1  0
 25 28  1  0
 24 25  1  0
 23 24  1  0
 22 23  1  0
 22 29  1  0
 21 22  1  0
 20 21  1  0
 18 19  1  0
 18 20  1  0
 17 18  1  0
 16 17  1  0
 15 16  1  0
 15 30  1  0
 14 15  1  0
 12 13  1  0
 11 12  1  0
 11 14  1  0
 10 11  1  0
 10 30  1  0
  9 10  1  0
  8  9  1  0
  8 13  1  0
  6  7  1  0
  6  8  1  0
  5  6  1  0
  4  5  1  0
  3  4  1  0
  2  3  1  0
  1  2  1  0
 28 56  1  0
 27 53  1  0
 27 54  1  0
 27 55  1  0
 24 52  1  0
 21 51  1  0
 20 49  1  0
 20 50  1  0
 19 46  1  0
 19 47  1  0
 19 48  1  0
 18 45  1  1
 17 43  1  0
 17 44  1  0
 16 42  1  0
 13 41  1  0
 12 40  1  0
  9 39  1  0
  5 38  1  0
  4 36  1  0
  4 37  1  0
  3 34  1  0
  3 35  1  0
  1 31  1  0
  1 32  1  0
  1 33  1  0
M  RAD  8   6   2   8   2   9   2  10   2  11   2  12   2  13   2  15   2
M  CHG  4   7  -1  14  -1  23  -1  29  -1
M  RAD  4  22   2  24   2  25   2  28   2
M  END
>  <_TriposChargeType>  (1) 
USER_CHARGES

$$$$
