@<TRIPOS>MOLECULE
Cpptraj Generated mol2 file.
   56    58     1     0     0
SMALL
USER_CHARGES


@<TRIPOS>ATOM
      1 C1         36.6582   50.6065   21.0761 C.aa         1 L1       0.065301
      2 O1         38.0944   50.8394   21.3072 O.ab         1 L1      -0.446480
      3 C2         38.4384   51.4562   22.5834 C.ad         1 L1       0.220452
      4 C3         38.2472   52.9918   22.4459 C.ae         1 L1       0.032862
      5 N1         38.5786   53.7097   23.7445 N.af         1 L1      -0.537975
      6 C4         37.7638   53.6863   24.8706 C.ah         1 L1       0.669475
      7 O2         36.6643   53.1606   24.7817 O.ai         1 L1      -0.606968
      8 C5         38.3056   54.3989   26.0702 C.aj         1 L1       0.007991
      9 C6         38.7772   55.7020   25.8667 C.ak         1 L1      -0.260625
     10 C7         39.3757   56.3029   26.9982 C.an         1 L1       0.079340
     11 C8         39.3121   55.8118   28.2666 C.ao         1 L1       0.124328
     12 C9         38.7561   54.5226   28.4657 C.ap         1 L1      -0.206415
     13 C10        38.3091   53.9084   27.3835 C.aq         1 L1      -0.187139
     14 N2         39.7929   56.5847   29.2977 N.av         1 L1      -0.254390
     15 C11        40.2572   57.7002   28.7259 C.aw         1 L1       0.227351
     16 N3         40.9916   58.5777   29.4020 N.ax         1 L1      -0.480160
     17 C12        40.8748   58.7456   30.8995 C.ay         1 L1       0.054484
     18 C13        41.6381   60.0499   31.3721 C.az         1 L1       0.135543
     19 C14        41.5222   61.2365   30.4155 C.bb         1 L1      -0.294229
     20 C15        41.2830   60.4560   32.8049 C.bc         1 L1       0.052097
     21 N4         39.7850   60.8789   32.8574 N.bd         1 L1      -0.553251
     22 C16        39.3059   62.1373   33.0425 C.bf         1 L1       0.320914
     23 N5         40.0688   63.0031   33.7173 N.bg         1 L1      -0.246529
     24 C17        39.5124   64.2293   33.8565 C.bh         1 L1      -0.074235
     25 C18        38.2749   64.5300   33.3455 C.bj         1 L1       0.100489
     26 S1         37.5356   66.1957   33.4758 S.bk         1 L1      -0.236869
     27 C19        37.9593   66.7877   35.2065 C.bl         1 L1      -0.190327
     28 C20        37.5588   63.5385   32.6902 C.bm         1 L1      -0.074235
     29 N6         38.1130   62.3096   32.5718 N.bn         1 L1      -0.246529
     30 S2         40.0348   57.8369   26.9405 S.bo         1 L1      -0.149995
     31 H1         36.5355   49.9231   20.2267 H.bp         1 L1       0.051248
     32 H2         36.1656   50.2988   22.0067 H.bq         1 L1       0.051248
     33 H3         36.2204   51.5729   20.7971 H.bs         1 L1       0.051248
     34 H4         37.7807   51.0036   23.3357 H.bt         1 L1       0.005246
     35 H5         39.5205   51.3349   22.7165 H.bu         1 L1       0.005246
     36 H6         38.9038   53.4552   21.6991 H.bv         1 L1       0.077124
     37 H7         37.1772   53.1874   22.3038 H.bw         1 L1       0.077124
     38 H8         39.3964   54.3063   23.7846 H.bx         1 L1       0.300266
     39 H9         38.9035   56.1520   24.8864 H.by         1 L1       0.141067
     40 H10        38.7658   54.2253   29.5102 H.bz         1 L1       0.164308
     41 H11        37.9565   52.8991   27.5746 H.cb         1 L1       0.173990
     42 H12        41.1368   59.4695   28.9464 H.ci         1 L1       0.353922
     43 H13        39.8568   58.9609   31.2470 H.cj         1 L1       0.069484
     44 H14        41.2624   57.8640   31.4247 H.ck         1 L1       0.069484
     45 H15        42.6812   59.7123   31.3358 H.cm         1 L1       0.006793
     46 H16        42.1075   61.0475   29.5071 H.cn         1 L1       0.081534
     47 H17        40.4685   61.3324   30.1259 H.ct         1 L1       0.081534
     48 H18        41.9433   62.1964   30.7388 H.cw         1 L1       0.081534
     49 H19        41.4765   59.5248   33.3516 H.da         1 L1       0.069150
     50 H20        41.9194   61.2373   33.2385 H.db         1 L1       0.069150
     51 H21        39.1577   60.2523   32.3697 H.dc         1 L1       0.358208
     52 H22        40.0246   65.0812   34.3012 H.dd         1 L1       0.141219
     53 H23        37.3834   66.1790   35.9145 H.de         1 L1       0.111459
     54 H24        39.0139   66.6838   35.4903 H.df         1 L1       0.111459
     55 H25        37.5990   67.7945   35.4511 H.dg         1 L1       0.111459
     56 H26        36.5807   63.7677   32.2697 H.dh         1 L1       0.141219
@<TRIPOS>BOND
    1    28    29 1
    2    26    27 1
    3    25    26 1
    4    25    28 1
    5    24    25 1
    6    23    24 1
    7    22    23 1
    8    22    29 1
    9    21    22 1
   10    20    21 1
   11    18    19 1
   12    18    20 1
   13    17    18 1
   14    16    17 1
   15    15    16 1
   16    15    30 1
   17    14    15 1
   18    12    13 1
   19    11    12 1
   20    11    14 1
   21    10    11 1
   22    10    30 1
   23     9    10 1
   24     8     9 1
   25     8    13 1
   26     6     7 1
   27     6     8 1
   28     5     6 1
   29     4     5 1
   30     3     4 1
   31     2     3 1
   32     1     2 1
   33    28    56 1
   34    27    53 1
   35    27    54 1
   36    27    55 1
   37    24    52 1
   38    21    51 1
   39    20    49 1
   40    20    50 1
   41    19    46 1
   42    19    47 1
   43    19    48 1
   44    18    45 1
   45    17    43 1
   46    17    44 1
   47    16    42 1
   48    13    41 1
   49    12    40 1
   50     9    39 1
   51     5    38 1
   52     4    36 1
   53     4    37 1
   54     3    34 1
   55     3    35 1
   56     1    31 1
   57     1    32 1
   58     1    33 1
@<TRIPOS>SUBSTRUCTURE
      1 L1                1 L.****               0 L.****  L.**** 
