Cpptraj Generated mol2 file.
     RDKit          3D

 45 47  0  0  0  0  0  0  0  0999 V2000
   42.6753   60.9420   31.9413 C   0  0  0  0  0  0  0  0  0  0  0  0
   42.5099   60.6764   33.4910 C   0  0  0  0  0  0  0  0  0  0  0  0
   41.0402   60.8877   34.0086 C   0  0  2  0  0  0  0  0  0  0  0  0
   40.0516   59.7540   33.4721 C   0  0  0  0  0  0  0  0  0  0  0  0
   39.7983   59.8077   31.9876 N   0  0  0  0  0  0  0  0  0  0  0  0
   39.3414   58.6977   31.3188 C   0  0  0  0  0  3  0  0  0  0  0  0
   39.2123   58.6482   29.9806 N   0  0  0  0  0  2  0  0  0  0  0  0
   38.8353   57.3190   29.7921 C   0  0  0  0  0  3  0  0  0  0  0  0
   38.7590   56.6521   31.0508 C   0  0  0  0  0  3  0  0  0  0  0  0
   39.0155   57.5190   32.0288 O   0  0  0  0  0  0  0  0  0  0  0  0
   38.3889   55.2786   31.1605 C   0  0  0  0  0  3  0  0  0  0  0  0
   37.8566   54.6947   30.0272 C   0  0  0  0  0  3  0  0  0  0  0  0
   37.9954   55.3723   28.8054 C   0  0  0  0  0  3  0  0  0  0  0  0
   38.4212   56.6862   28.6108 C   0  0  0  0  0  3  0  0  0  0  0  0
   40.5382   62.2929   33.7386 C   0  0  0  0  0  0  0  0  0  0  0  0
   39.2226   62.6604   34.4136 N   0  0  0  0  0  0  0  0  0  0  0  0
   38.8881   63.9543   34.6077 C   0  0  0  0  0  3  0  0  0  0  0  0
   39.9245   64.8643   34.4928 N   0  0  0  0  0  2  0  0  0  0  0  0
   39.6860   66.1896   34.6078 C   0  0  0  0  0  3  0  0  0  0  0  0
   38.3903   66.6254   34.9349 C   0  0  0  0  0  3  0  0  0  0  0  0
   38.1407   68.1300   35.9003 S   0  0  0  0  0  0  0  0  0  0  0  0
   39.8030   68.7620   36.5036 C   0  0  0  0  0  0  0  0  0  0  0  0
   37.3267   65.7084   35.0074 C   0  0  0  0  0  3  0  0  0  0  0  0
   37.5582   64.3591   34.8177 N   0  0  0  0  0  2  0  0  0  0  0  0
   42.3492   61.8969   31.5108 H   0  0  0  0  0  0  0  0  0  0  0  0
   43.7610   61.0216   31.8058 H   0  0  0  0  0  0  0  0  0  0  0  0
   42.4262   60.0429   31.3644 H   0  0  0  0  0  0  0  0  0  0  0  0
   42.7915   59.6818   33.8584 H   0  0  0  0  0  0  0  0  0  0  0  0
   43.2185   61.3421   33.9990 H   0  0  0  0  0  0  0  0  0  0  0  0
   41.0645   60.8287   35.1038 H   0  0  0  0  0  0  0  0  0  0  0  0
   40.4804   58.7775   33.7289 H   0  0  0  0  0  0  0  0  0  0  0  0
   39.1244   59.9102   34.0372 H   0  0  0  0  0  0  0  0  0  0  0  0
   40.0274   60.6003   31.4015 H   0  0  0  0  0  0  0  0  0  0  0  0
   38.3809   54.7045   32.0823 H   0  0  0  0  0  0  0  0  0  0  0  0
   37.6870   53.6231   29.9786 H   0  0  0  0  0  0  0  0  0  0  0  0
   37.7130   54.8242   27.9113 H   0  0  0  0  0  0  0  0  0  0  0  0
   38.3828   57.1711   27.6398 H   0  0  0  0  0  0  0  0  0  0  0  0
   41.3013   63.0187   34.0458 H   0  0  0  0  0  0  0  0  0  0  0  0
   40.4205   62.5611   32.6814 H   0  0  0  0  0  0  0  0  0  0  0  0
   38.4322   62.1024   34.7103 H   0  0  0  0  0  0  0  0  0  0  0  0
   40.4593   66.9427   34.4640 H   0  0  0  0  0  0  0  0  0  0  0  0
   39.7256   69.6854   37.0907 H   0  0  0  0  0  0  0  0  0  0  0  0
   40.3360   68.0337   37.1273 H   0  0  0  0  0  0  0  0  0  0  0  0
   40.4862   68.9971   35.6782 H   0  0  0  0  0  0  0  0  0  0  0  0
   36.3936   65.7123   35.5689 H   0  0  0  0  0  0  0  0  0  0  0  0
 23 24  1  0
 21 22  1  0
 20 21  1  0
 20 23  1  0
 19 20  1  0
 18 19  1  0
 17 18  1  0
 17 24  1  0
 16 17  1  0
 15 16  1  0
 13 14  1  0
 12 13  1  0
 11 12  1  0
  9 10  1  0
  9 11  1  0
  8  9  1  0
  8 14  1  0
  7  8  1  0
  6  7  1  0
  6 10  1  0
  5  6  1  0
  4  5  1  0
  3  4  1  0
  3 15  1  0
  2  3  1  0
  1  2  1  0
 23 45  1  0
 22 42  1  0
 22 43  1  0
 22 44  1  0
 19 41  1  0
 16 40  1  0
 15 38  1  0
 15 39  1  0
 14 37  1  0
 13 36  1  0
 12 35  1  0
 11 34  1  0
  5 33  1  0
  4 31  1  0
  4 32  1  0
  3 30  1  1
  2 28  1  0
  2 29  1  0
  1 25  1  0
  1 26  1  0
  1 27  1  0
M  RAD  8   6   2   8   2   9   2  11   2  12   2  13   2  14   2  17   2
M  CHG  3   7  -1  18  -1  24  -1
M  RAD  3  19   2  20   2  23   2
M  END
>  <_TriposChargeType>  (1) 
USER_CHARGES

$$$$
