@<TRIPOS>MOLECULE
Cpptraj Generated mol2 file.
   45    47     1     0     0
SMALL
USER_CHARGES


@<TRIPOS>ATOM
      1 C1         40.8105   61.0119   28.5949 aa         1 L1      -0.266322
      2 C2         40.6451   60.7463   30.1446 ab         1 L1       0.006854
      3 C3         39.1754   60.9576   30.6622 ad         1 L1       0.073160
      4 C4         38.1868   59.8239   30.1257 ae         1 L1       0.061401
      5 N1         37.9335   59.8776   28.6412 af         1 L1      -0.513747
      6 C5         37.4766   58.7676   27.9724 ah         1 L1       0.333619
      7 N2         37.3475   58.7181   26.6342 ai         1 L1      -0.316635
      8 C6         36.9705   57.3889   26.4457 aj         1 L1       0.107413
      9 C7         36.8942   56.7220   27.7044 ak         1 L1       0.156941
     10 O1         37.1507   57.5889   28.6824 an         1 L1      -0.245156
     11 C8         36.5241   55.3485   27.8141 ao         1 L1      -0.216881
     12 C9         35.9918   54.7646   26.6808 ap         1 L1      -0.149391
     13 C10        36.1306   55.4422   25.4590 aq         1 L1      -0.149391
     14 C11        36.5564   56.7561   25.2644 av         1 L1      -0.210163
     15 C12        38.6734   62.3628   30.3922 aw         1 L1       0.052926
     16 N3         37.3578   62.7303   31.0672 ax         1 L1      -0.553813
     17 C13        37.1150   63.9136   31.7595 ay         1 L1       0.323017
     18 N4         38.1842   64.7003   32.0551 az         1 L1      -0.246620
     19 C14        37.9205   65.8046   32.8634 bb         1 L1      -0.073970
     20 C15        36.6386   66.1268   33.2821 bc         1 L1       0.100773
     21 S1         36.3890   67.6314   34.2475 bd         1 L1      -0.236636
     22 C16        38.0513   68.2634   34.8508 bf         1 L1      -0.190283
     23 C17        35.6114   65.1723   32.9677 bg         1 L1      -0.073970
     24 N5         35.8437   64.0664   32.2422 bh         1 L1      -0.246620
     25 H1         40.4844   61.9668   28.1644 bj         1 L1       0.074982
     26 H2         41.8962   61.0915   28.4594 bk         1 L1       0.074982
     27 H3         40.5614   60.1128   28.0180 bl         1 L1       0.074982
     28 H4         40.9267   59.7517   30.5120 bm         1 L1       0.020707
     29 H5         41.3537   61.4120   30.6526 bn         1 L1       0.020707
     30 H6         39.1997   60.8986   31.7574 bo         1 L1       0.006925
     31 H7         38.6156   58.8474   30.3825 bp         1 L1       0.062535
     32 H8         37.2596   59.9801   30.6908 bq         1 L1       0.062535
     33 H9         38.1626   60.6702   28.0551 bs         1 L1       0.364526
     34 H10        36.5161   54.7744   28.7359 bt         1 L1       0.151473
     35 H11        35.8222   53.6930   26.6322 bu         1 L1       0.146302
     36 H12        35.8482   54.8941   24.5649 bv         1 L1       0.146302
     37 H13        36.5180   57.2410   24.2934 bw         1 L1       0.155748
     38 H14        39.4365   63.0886   30.6994 bx         1 L1       0.069576
     39 H15        38.5557   62.6310   29.3350 by         1 L1       0.069576
     40 H16        36.6059   62.0658   30.9360 bz         1 L1       0.355786
     41 H17        38.7755   66.4080   33.1649 cb         1 L1       0.140574
     42 H18        37.9739   69.1868   35.4379 ci         1 L1       0.111568
     43 H19        38.5843   67.5351   35.4745 cj         1 L1       0.111568
     44 H20        38.7345   68.4985   34.0254 ck         1 L1       0.111568
     45 H21        34.6783   65.1762   33.5292 cm         1 L1       0.140574
@<TRIPOS>BOND
    1    23    24 1
    2    21    22 1
    3    20    21 1
    4    20    23 1
    5    19    20 1
    6    18    19 1
    7    17    18 1
    8    17    24 1
    9    16    17 1
   10    15    16 1
   11    13    14 1
   12    12    13 1
   13    11    12 1
   14     9    10 1
   15     9    11 1
   16     8     9 1
   17     8    14 1
   18     7     8 1
   19     6     7 1
   20     6    10 1
   21     5     6 1
   22     4     5 1
   23     3     4 1
   24     3    15 1
   25     2     3 1
   26     1     2 1
   27    23    45 1
   28    22    42 1
   29    22    43 1
   30    22    44 1
   31    19    41 1
   32    16    40 1
   33    15    38 1
   34    15    39 1
   35    14    37 1
   36    13    36 1
   37    12    35 1
   38    11    34 1
   39     5    33 1
   40     4    31 1
   41     4    32 1
   42     3    30 1
   43     2    28 1
   44     2    29 1
   45     1    25 1
   46     1    26 1
   47     1    27 1
@<TRIPOS>SUBSTRUCTURE
      1 L1                1 ****               0 ****  **** 
