Cpptraj Generated mol2 file.
     RDKit          3D

 54 57  0  0  0  0  0  0  0  0999 V2000
   35.7997   55.1091   27.8473 C   0  0  0  0  0  0  0  0  0  0  0  0
   36.0211   55.4673   29.1389 S   0  0  0  0  0  0  0  0  0  0  0  0
   36.7096   56.5410   29.5201 C   0  0  0  0  0  3  0  0  0  0  0  0
   37.4244   56.6112   30.7411 C   0  0  0  0  0  3  0  0  0  0  0  0
   38.0334   57.7047   31.2525 N   0  0  0  0  0  2  0  0  0  0  0  0
   38.0553   58.7801   30.3847 C   0  0  0  0  0  3  0  0  0  0  0  0
   38.8212   59.9135   30.6445 N   0  0  0  0  0  0  0  0  0  0  0  0
   39.0680   60.5190   31.9357 C   0  0  0  0  0  0  0  0  0  0  0  0
   40.2842   61.3762   32.1516 C   0  0  1  0  0  0  0  0  0  0  0  0
   40.3035   62.6096   31.1663 C   0  0  0  0  0  0  0  0  0  0  0  0
   40.4854   61.7729   33.6827 C   0  0  0  0  0  0  0  0  0  0  0  0
   39.3027   62.5492   34.1805 N   0  0  0  0  0  0  0  0  0  0  0  0
   39.3036   63.8245   34.6643 C   0  0  0  0  0  3  0  0  0  0  0  0
   38.1508   64.4298   34.9093 N   0  0  0  0  0  2  0  0  0  0  0  0
   38.4516   65.6690   35.2392 C   0  0  0  0  0  3  0  0  0  0  0  0
   39.7779   65.9537   35.3074 C   0  0  0  0  0  3  0  0  0  0  0  0
   40.8521   64.7452   34.7952 S   0  0  0  0  0  0  0  0  0  0  0  0
   40.1138   67.3248   35.3094 C   0  0  0  0  0  3  0  0  0  0  0  0
   39.1977   68.3550   35.5473 C   0  0  0  0  0  3  0  0  0  0  0  0
   37.8506   68.0005   35.7440 C   0  0  0  0  0  3  0  0  0  0  0  0
   37.4557   66.6393   35.5241 C   0  0  0  0  0  3  0  0  0  0  0  0
   39.6263   69.7571   35.7819 C   0  0  0  0  0  3  0  0  0  0  0  0
   40.1343   70.2415   36.8920 C   0  0  0  0  0  3  0  0  0  0  0  0
   40.4559   69.4350   38.1120 C   0  0  0  0  0  0  0  0  0  0  0  0
   40.3562   71.5929   36.8466 O   0  0  0  0  0  0  0  0  0  0  0  0
   39.7779   71.9487   35.4488 N   0  0  0  0  0  2  0  0  0  0  0  0
   39.3735   70.8198   34.9016 C   0  0  0  0  0  3  0  0  0  0  0  0
   38.5940   70.6058   33.5678 C   0  0  0  0  0  0  0  0  0  0  0  0
   37.3301   58.8703   29.1875 N   0  0  0  0  0  2  0  0  0  0  0  0
   36.6605   57.7603   28.8420 C   0  0  0  0  0  3  0  0  0  0  0  0
   35.7744   55.7812   28.7140 H   0  0  0  0  0  0  0  0  0  0  0  0
   35.4786   55.9427   27.2105 H   0  0  0  0  0  0  0  0  0  0  0  0
   34.9113   54.4805   27.7089 H   0  0  0  0  0  0  0  0  0  0  0  0
   37.4606   55.6656   31.2802 H   0  0  0  0  0  0  0  0  0  0  0  0
   38.8459   60.6861   29.9914 H   0  0  0  0  0  0  0  0  0  0  0  0
   38.2047   61.1331   32.2204 H   0  0  0  0  0  0  0  0  0  0  0  0
   39.0440   59.7289   32.6964 H   0  0  0  0  0  0  0  0  0  0  0  0
   41.1180   60.7240   31.8638 H   0  0  0  0  0  0  0  0  0  0  0  0
   40.9559   63.3425   31.6569 H   0  0  0  0  0  0  0  0  0  0  0  0
   40.8195   62.4882   30.2058 H   0  0  0  0  0  0  0  0  0  0  0  0
   39.3185   63.0652   31.0064 H   0  0  0  0  0  0  0  0  0  0  0  0
   40.7151   60.9393   34.3577 H   0  0  0  0  0  0  0  0  0  0  0  0
   41.3532   62.4434   33.7103 H   0  0  0  0  0  0  0  0  0  0  0  0
   38.4525   62.0081   34.2729 H   0  0  0  0  0  0  0  0  0  0  0  0
   41.1421   67.5812   35.0723 H   0  0  0  0  0  0  0  0  0  0  0  0
   37.2036   68.8378   35.9882 H   0  0  0  0  0  0  0  0  0  0  0  0
   36.4035   66.3719   35.5521 H   0  0  0  0  0  0  0  0  0  0  0  0
   39.7570   68.6152   38.3186 H   0  0  0  0  0  0  0  0  0  0  0  0
   41.5059   69.1175   38.1004 H   0  0  0  0  0  0  0  0  0  0  0  0
   40.4320   70.0228   39.0379 H   0  0  0  0  0  0  0  0  0  0  0  0
   37.7580   71.2938   33.3907 H   0  0  0  0  0  0  0  0  0  0  0  0
   39.2207   70.6855   32.6710 H   0  0  0  0  0  0  0  0  0  0  0  0
   38.2028   69.5828   33.5059 H   0  0  0  0  0  0  0  0  0  0  0  0
   36.0389   57.8952   27.9581 H   0  0  0  0  0  0  0  0  0  0  0  0
 29 30  1  0
 27 28  1  0
 26 27  1  0
 25 26  1  0
 23 24  1  0
 23 25  1  0
 22 23  1  0
 22 27  1  0
 20 21  1  0
 19 20  1  0
 19 22  1  0
 18 19  1  0
 16 17  1  0
 16 18  1  0
 15 16  1  0
 15 21  1  0
 14 15  1  0
 13 14  1  0
 13 17  1  0
 12 13  1  0
 11 12  1  0
  9 10  1  0
  9 11  1  0
  8  9  1  0
  7  8  1  0
  6  7  1  0
  6 29  1  0
  5  6  1  0
  4  5  1  0
  3  4  1  0
  3 30  1  0
  2  3  1  0
  1  2  1  0
 30 54  1  0
 28 51  1  0
 28 52  1  0
 28 53  1  0
 24 48  1  0
 24 49  1  0
 24 50  1  0
 21 47  1  0
 20 46  1  0
 18 45  1  0
 12 44  1  0
 11 42  1  0
 11 43  1  0
 10 39  1  0
 10 40  1  0
 10 41  1  0
  9 38  1  6
  8 36  1  0
  8 37  1  0
  7 35  1  0
  4 34  1  0
  1 31  1  0
  1 32  1  0
  1 33  1  0
M  RAD  8   3   2   4   2   6   2  13   2  15   2  16   2  18   2  19   2
M  CHG  4   5  -1  14  -1  26  -1  29  -1
M  RAD  6  20   2  21   2  22   2  23   2  27   2  30   2
M  END
>  <_TriposChargeType>  (1) 
USER_CHARGES

$$$$
