@<TRIPOS>MOLECULE
Cpptraj Generated mol2 file.
   54    57     1     0     0
SMALL
USER_CHARGES


@<TRIPOS>ATOM
      1 C1         31.1201   58.6080   28.0884 C.aa         1 L1      -0.189954
      2 S1         32.6611   57.6620   28.3750 S.ab         1 L1      -0.237299
      3 C2         34.0245   58.7846   28.7501 C.ad         1 L1       0.100483
      4 C3         34.3803   58.9720   30.0645 C.ae         1 L1      -0.073984
      5 N1         35.4428   59.7400   30.3962 N.af         1 L1      -0.247538
      6 C4         36.0309   60.5004   29.3462 C.ah         1 L1       0.320906
      7 N2         37.0462   61.4022   29.6943 N.ai         1 L1      -0.553711
      8 C5         37.2930   62.0077   30.9855 C.aj         1 L1       0.053733
      9 C6         38.5092   62.8649   31.2014 C.ak         1 L1       0.134621
     10 C7         38.5285   64.0983   30.2161 C.an         1 L1      -0.292367
     11 C8         38.7104   63.2616   32.7325 C.ao         1 L1       0.058047
     12 N3         37.5277   64.0379   33.2303 N.ap         1 L1      -0.485174
     13 C9         37.5286   65.3132   33.7141 C.aq         1 L1       0.226792
     14 N4         36.3758   65.9185   33.9591 N.av         1 L1      -0.267673
     15 C10        36.6766   67.1577   34.2890 C.aw         1 L1       0.119565
     16 C11        38.0029   67.4424   34.3572 C.ax         1 L1       0.076828
     17 S2         39.0771   66.2339   33.8450 S.ay         1 L1      -0.147871
     18 C12        38.3388   68.8135   34.3592 C.az         1 L1      -0.265719
     19 C13        37.4227   69.8437   34.5971 C.bb         1 L1       0.153106
     20 C14        36.0756   69.4892   34.7938 C.bc         1 L1      -0.204336
     21 C15        35.6807   68.1280   34.5739 C.bd         1 L1      -0.209476
     22 C16        37.8513   71.2458   34.8317 C.bf         1 L1      -0.065536
     23 C17        38.3593   71.7302   35.9418 C.bg         1 L1       0.090003
     24 C18        38.6809   70.9237   37.1618 C.bh         1 L1      -0.201094
     25 O1         38.5812   73.0816   35.8964 O.bj         1 L1      -0.187545
     26 N5         38.0029   73.4374   34.4986 N.bk         1 L1      -0.087884
     27 C19        37.5985   72.3085   33.9514 C.bl         1 L1       0.035264
     28 C20        36.8190   72.0945   32.6176 C.bm         1 L1      -0.196581
     29 N6         35.7477   60.4001   28.0885 N.bn         1 L1      -0.247538
     30 C21        34.8024   59.4924   27.7482 C.bo         1 L1      -0.073984
     31 H1         31.0948   59.2801   28.9551 H.bp         1 L1       0.111516
     32 H2         31.2354   59.2373   27.1973 H.bq         1 L1       0.111516
     33 H3         30.2317   57.9794   27.9500 H.bs         1 L1       0.111516
     34 H4         33.9099   58.3553   30.8290 H.bt         1 L1       0.141263
     35 H5         37.2313   62.0332   28.9251 H.bu         1 L1       0.355425
     36 H6         36.4297   62.6218   31.2702 H.bv         1 L1       0.065954
     37 H7         37.2690   61.2176   31.7462 H.bw         1 L1       0.065954
     38 H8         39.3430   62.2127   30.9136 H.bx         1 L1       0.008607
     39 H9         39.1809   64.8312   30.7067 H.by         1 L1       0.081295
     40 H10        39.0445   63.9769   29.2556 H.bz         1 L1       0.081295
     41 H11        37.5435   64.5539   30.0562 H.cb         1 L1       0.081295
     42 H12        38.9401   62.4280   33.4075 H.ci         1 L1       0.065647
     43 H13        39.5782   63.9321   32.7601 H.cj         1 L1       0.065647
     44 H14        36.6775   63.4968   33.3227 H.ck         1 L1       0.363378
     45 H15        39.3671   69.0699   34.1221 H.cm         1 L1       0.145847
     46 H16        35.4286   70.3265   35.0380 H.cn         1 L1       0.147786
     47 H17        34.6285   67.8606   34.6019 H.ct         1 L1       0.155148
     48 H18        37.9820   70.1039   37.3684 H.cw         1 L1       0.098063
     49 H19        39.7309   70.6062   37.1502 H.da         1 L1       0.098063
     50 H20        38.6570   71.5115   38.0877 H.db         1 L1       0.098063
     51 H21        35.9830   72.7825   32.4405 H.dc         1 L1       0.090457
     52 H22        37.4457   72.1742   31.7208 H.dd         1 L1       0.090457
     53 H23        36.4278   71.0715   32.5557 H.de         1 L1       0.090457
     54 H24        34.6343   59.3322   26.6842 H.df         1 L1       0.141263
@<TRIPOS>BOND
    1    29    30 1
    2    27    28 1
    3    26    27 1
    4    25    26 1
    5    23    24 1
    6    23    25 1
    7    22    23 1
    8    22    27 1
    9    20    21 1
   10    19    20 1
   11    19    22 1
   12    18    19 1
   13    16    17 1
   14    16    18 1
   15    15    16 1
   16    15    21 1
   17    14    15 1
   18    13    14 1
   19    13    17 1
   20    12    13 1
   21    11    12 1
   22     9    10 1
   23     9    11 1
   24     8     9 1
   25     7     8 1
   26     6     7 1
   27     6    29 1
   28     5     6 1
   29     4     5 1
   30     3     4 1
   31     3    30 1
   32     2     3 1
   33     1     2 1
   34    30    54 1
   35    28    51 1
   36    28    52 1
   37    28    53 1
   38    24    48 1
   39    24    49 1
   40    24    50 1
   41    21    47 1
   42    20    46 1
   43    18    45 1
   44    12    44 1
   45    11    42 1
   46    11    43 1
   47    10    39 1
   48    10    40 1
   49    10    41 1
   50     9    38 1
   51     8    36 1
   52     8    37 1
   53     7    35 1
   54     4    34 1
   55     1    31 1
   56     1    32 1
   57     1    33 1
@<TRIPOS>SUBSTRUCTURE
      1 L1                1 L.****               0 L.****  L.**** 
