
     RDKit          3D

 48 51  0  0  0  0  0  0  0  0999 V2000
  -26.1184   41.9862  -10.8407 C   0  0  0  0  0  0  0  0  0  0  0  0
  -27.1787   40.9862   -9.7515 S   0  0  0  0  0  0  0  0  0  0  0  0
  -26.3656   39.4449  -10.1752 C   0  0  0  0  0  0  0  0  0  0  0  0
  -26.9636   38.5393  -11.0526 C   0  0  0  0  0  0  0  0  0  0  0  0
  -26.3332   37.3756  -11.3568 N   0  0  0  0  0  0  0  0  0  0  0  0
  -25.1219   37.0697  -10.8149 C   0  0  0  0  0  0  0  0  0  0  0  0
  -24.4633   35.8400  -11.1451 N   0  0  0  0  0  0  0  0  0  0  0  0
  -25.1323   34.7677  -11.8940 C   0  0  0  0  0  0  0  0  0  0  0  0
  -24.1992   33.5725  -12.0989 C   0  0  0  0  0  0  0  0  0  0  0  0
  -24.4552   32.6136  -10.9358 C   0  0  0  0  0  0  0  0  0  0  0  0
  -25.6559   33.1699  -10.1626 C   0  0  0  0  0  0  0  0  0  0  0  0
  -26.2937   34.2024  -11.0869 C   0  0  0  0  0  0  0  0  0  0  0  0
  -26.6001   32.1100   -9.7890 N   0  0  0  0  0  0  0  0  0  0  0  0
  -26.3281   31.1080   -8.7937 C   0  0  0  0  0  0  0  0  0  0  0  0
  -25.1547   31.1172   -8.0182 C   0  0  0  0  0  0  0  0  0  0  0  0
  -24.9489   30.1151   -7.0684 C   0  0  0  0  0  0  0  0  0  0  0  0
  -25.9052   29.1076   -6.8869 C   0  0  0  0  0  0  0  0  0  0  0  0
  -27.0633   29.1338   -7.6766 C   0  0  0  0  0  0  0  0  0  0  0  0
  -27.2425   30.1190   -8.5958 N   0  0  0  0  0  0  0  0  0  0  0  0
  -25.6931   28.0460   -5.8845 C   0  0  0  0  0  0  0  0  0  0  0  0
  -24.5378   27.3710   -5.7196 N   0  0  0  0  0  0  0  0  0  0  0  0
  -24.7433   26.5130   -4.7325 N   0  0  0  0  0  0  0  0  0  0  0  0
  -26.0168   26.6944   -4.3367 C   0  0  0  0  0  0  0  0  0  0  0  0
  -26.6611   25.9455   -3.2211 C   0  0  0  0  0  0  0  0  0  0  0  0
  -26.6048   27.6357   -5.0341 O   0  0  0  0  0  0  0  0  0  0  0  0
  -24.5280   37.9424   -9.9572 N   0  0  0  0  0  0  0  0  0  0  0  0
  -25.1247   39.1171   -9.6272 C   0  0  0  0  0  0  0  0  0  0  0  0
  -25.6100   41.3344  -11.5511 H   0  0  0  0  0  0  0  0  0  0  0  0
  -26.7310   42.7066  -11.3826 H   0  0  0  0  0  0  0  0  0  0  0  0
  -25.3789   42.5167  -10.2408 H   0  0  0  0  0  0  0  0  0  0  0  0
  -27.9338   38.7433  -11.5054 H   0  0  0  0  0  0  0  0  0  0  0  0
  -23.5062   35.7265  -10.8433 H   0  0  0  0  0  0  0  0  0  0  0  0
  -25.4365   35.2428  -12.8267 H   0  0  0  0  0  0  0  0  0  0  0  0
  -24.5127   33.0672  -13.0124 H   0  0  0  0  0  0  0  0  0  0  0  0
  -23.1766   33.9369  -12.0012 H   0  0  0  0  0  0  0  0  0  0  0  0
  -24.7574   31.6577  -11.3636 H   0  0  0  0  0  0  0  0  0  0  0  0
  -23.5896   32.6658  -10.2754 H   0  0  0  0  0  0  0  0  0  0  0  0
  -25.3781   33.5951   -9.1982 H   0  0  0  0  0  0  0  0  0  0  0  0
  -26.9507   33.6721  -11.7762 H   0  0  0  0  0  0  0  0  0  0  0  0
  -26.6896   35.0061  -10.4661 H   0  0  0  0  0  0  0  0  0  0  0  0
  -27.4986   32.0672  -10.2483 H   0  0  0  0  0  0  0  0  0  0  0  0
  -24.4069   31.8989   -8.1529 H   0  0  0  0  0  0  0  0  0  0  0  0
  -24.0396   30.1193   -6.4674 H   0  0  0  0  0  0  0  0  0  0  0  0
  -27.8385   28.3744   -7.5741 H   0  0  0  0  0  0  0  0  0  0  0  0
  -26.8496   24.9185   -3.5340 H   0  0  0  0  0  0  0  0  0  0  0  0
  -26.0005   25.9457   -2.3541 H   0  0  0  0  0  0  0  0  0  0  0  0
  -27.6046   26.4243   -2.9591 H   0  0  0  0  0  0  0  0  0  0  0  0
  -24.6157   39.7863   -8.9335 H   0  0  0  0  0  0  0  0  0  0  0  0
  1  2  1  0
  2  3  1  0
  3  4  2  0
  4  5  1  0
  5  6  2  0
  6  7  1  0
  8  7  1  0
  8  9  1  0
  9 10  1  0
 11 10  1  0
 11 12  1  0
  8 12  1  0
 11 13  1  0
 13 14  1  0
 14 15  2  0
 15 16  1  0
 16 17  2  0
 17 18  1  0
 18 19  2  0
 14 19  1  0
 17 20  1  0
 20 21  2  0
 21 22  1  0
 22 23  2  0
 23 24  1  0
 23 25  1  0
 20 25  1  0
  6 26  1  0
 26 27  2  0
  3 27  1  0
  1 28  1  0
  1 29  1  0
  1 30  1  0
  4 31  1  0
  7 32  1  0
  8 33  1  0
  9 34  1  0
  9 35  1  0
 10 36  1  0
 10 37  1  0
 11 38  1  0
 12 39  1  0
 12 40  1  0
 13 41  1  0
 15 42  1  0
 16 43  1  0
 18 44  1  0
 24 45  1  0
 24 46  1  0
 24 47  1  0
 27 48  1  0
M  END
>  <21666828|PCSK9_Human_KD_nM_PREFIX|1>  (1) 
>=

>  <21666828|PCSK9_Human_KD_nM_REMARKS|1>  (1) 
Range >= 200 nM to < 2000 nM

>  <21666828|PCSK9_Human_KD_nM|1>  (1) 
200

>  <CHROM.1>  (1) 
-103.20403474,-9.95044153,-179.74427100,70.42789355,4.63233196,-45.63230783

>  <COMPOUND_ID>  (1) 
Example_316

>  <EmbedRMS>  (1) 
0.01196990326588649

>  <GVK_ID>  (1) 
124889603

>  <ISOMER>  (1) 
None

>  <Kd_Range>  (1) 
>= 200

>  <Name>  (1) 


>  <PAGE>  (1) 
156

>  <REFERENCE>  (1) 
WO 2020/150474 A1

>  <REF_ID>  (1) 
2133368

>  <RI>  (1) 
3.64326e+07

>  <Rbt.Current_Directory>  (1) 
/dev/shm/dwight/Example-316

>  <Rbt.Executable>  (1) 
rbdock ($Id: //depot/dev/client3/rdock/2013.1/src/exe/rbdock.cxx#4 $)

>  <Rbt.Library>  (1) 
libRbt.so (2013.1, Build901 2013/11/27)

>  <Rbt.Parameter_File>  (1) 
dock.prm

>  <Rbt.Receptor>  (1) 
receptor.prm

>  <SCORE>  (1) 
-14.7219

>  <SCORE.INTER>  (1) 
-18.0134

>  <SCORE.INTER.CONST>  (1) 
1

>  <SCORE.INTER.POLAR>  (1) 
-1.45764

>  <SCORE.INTER.REPUL>  (1) 
0

>  <SCORE.INTER.ROT>  (1) 
6

>  <SCORE.INTER.VDW>  (1) 
-24.4574

>  <SCORE.INTER.norm>  (1) 
-0.667163

>  <SCORE.INTRA>  (1) 
3.29153

>  <SCORE.INTRA.DIHEDRAL>  (1) 
6.92486

>  <SCORE.INTRA.DIHEDRAL.0>  (1) 
6.89374

>  <SCORE.INTRA.POLAR>  (1) 
0

>  <SCORE.INTRA.POLAR.0>  (1) 
0

>  <SCORE.INTRA.REPUL>  (1) 
0

>  <SCORE.INTRA.REPUL.0>  (1) 
0

>  <SCORE.INTRA.VDW>  (1) 
-0.170897

>  <SCORE.INTRA.VDW.0>  (1) 
-1.38609

>  <SCORE.INTRA.norm>  (1) 
0.121909

>  <SCORE.RESTR>  (1) 
0

>  <SCORE.RESTR.CAVITY>  (1) 
0

>  <SCORE.RESTR.norm>  (1) 
0

>  <SCORE.SYSTEM>  (1) 
0

>  <SCORE.SYSTEM.CONST>  (1) 
0

>  <SCORE.SYSTEM.DIHEDRAL>  (1) 
0

>  <SCORE.SYSTEM.norm>  (1) 
0

>  <SCORE.heavy>  (1) 
27

>  <SCORE.norm>  (1) 
-0.545255

>  <TETHERED ATOMS>  (1) 
12,11,10,9,8,7,6,13,14

>  <_MOLCOUNT>  (1) 
1

$$$$
