Cpptraj Generated mol2 file.
     RDKit          3D

 52 55  0  0  0  0  0  0  0  0999 V2000
   35.7997   55.1091   27.8473 C   0  0  0  0  0  0  0  0  0  0  0  0
   36.0211   55.4673   29.1389 S   0  0  0  0  0  0  0  0  0  0  0  0
   36.7096   56.5410   29.5201 C   0  0  0  0  0  3  0  0  0  0  0  0
   36.6605   57.7603   28.8420 C   0  0  0  0  0  3  0  0  0  0  0  0
   37.3301   58.8703   29.1875 N   0  0  0  0  0  2  0  0  0  0  0  0
   38.0553   58.7801   30.3847 C   0  0  0  0  0  3  0  0  0  0  0  0
   38.8212   59.9135   30.6445 N   0  0  0  0  0  0  0  0  0  0  0  0
   39.1603   60.0740   32.0874 C   0  0  0  0  0  0  0  0  0  0  0  0
   40.5078   60.7712   32.4350 C   0  0  2  0  0  0  0  0  0  0  0  0
   41.6503   60.0927   31.7570 C   0  0  0  0  0  0  0  0  0  0  0  0
   40.7698   60.8598   33.9950 C   0  0  0  0  0  0  0  0  0  0  0  0
   39.5011   61.3284   34.6395 N   0  0  0  0  0  0  0  0  0  0  0  0
   39.1088   62.6027   34.8470 C   0  0  0  0  0  3  0  0  0  0  0  0
   37.9407   62.9047   35.4101 N   0  0  0  0  0  2  0  0  0  0  0  0
   37.8660   64.2910   35.3458 C   0  0  0  0  0  3  0  0  0  0  0  0
   38.8839   64.9605   34.7480 C   0  0  0  0  0  3  0  0  0  0  0  0
   40.2244   63.9307   34.5096 S   0  0  0  0  0  0  0  0  0  0  0  0
   38.8435   66.3085   34.4781 C   0  0  0  0  0  3  0  0  0  0  0  0
   37.6274   66.9928   34.7463 C   0  0  0  0  0  3  0  0  0  0  0  0
   36.6280   66.3167   35.4770 C   0  0  0  0  0  3  0  0  0  0  0  0
   36.7522   65.0139   35.7935 C   0  0  0  0  0  3  0  0  0  0  0  0
   37.4680   68.3558   34.1677 C   0  0  0  0  0  3  0  0  0  0  0  0
   37.8445   68.6124   33.0734 O   0  0  0  0  0  1  0  0  0  0  0  0
   37.1764   69.3594   35.1119 N   0  0  0  0  0  0  0  0  0  0  0  0
   37.0486   69.3452   36.4464 C   0  0  0  0  0  3  0  0  0  0  0  0
   37.0525   70.5365   37.0710 N   0  0  0  0  0  2  0  0  0  0  0  0
   37.1972   71.4641   36.0313 N   0  0  0  0  0  2  0  0  0  0  0  0
   37.3105   70.7378   34.9715 C   0  0  0  0  0  3  0  0  0  0  0  0
   37.5183   71.2494   33.6817 N   0  0  0  0  0  0  0  0  0  0  0  0
   38.0334   57.7047   31.2525 N   0  0  0  0  0  2  0  0  0  0  0  0
   37.4244   56.6112   30.7411 C   0  0  0  0  0  3  0  0  0  0  0  0
   34.9363   55.7589   27.6580 H   0  0  0  0  0  0  0  0  0  0  0  0
   36.6971   55.6926   27.6074 H   0  0  0  0  0  0  0  0  0  0  0  0
   35.4786   55.9427   27.2105 H   0  0  0  0  0  0  0  0  0  0  0  0
   36.0389   57.8952   27.9581 H   0  0  0  0  0  0  0  0  0  0  0  0
   38.8459   60.6861   29.9914 H   0  0  0  0  0  0  0  0  0  0  0  0
   38.4106   60.7778   32.4696 H   0  0  0  0  0  0  0  0  0  0  0  0
   39.1557   59.0696   32.5284 H   0  0  0  0  0  0  0  0  0  0  0  0
   40.6055   61.8133   32.1066 H   0  0  0  0  0  0  0  0  0  0  0  0
   41.4946   60.0809   30.6712 H   0  0  0  0  0  0  0  0  0  0  0  0
   42.6434   60.5178   31.9478 H   0  0  0  0  0  0  0  0  0  0  0  0
   41.6879   59.0457   32.0825 H   0  0  0  0  0  0  0  0  0  0  0  0
   40.9358   59.8447   34.3765 H   0  0  0  0  0  0  0  0  0  0  0  0
   41.5726   61.5459   34.2920 H   0  0  0  0  0  0  0  0  0  0  0  0
   38.7769   60.6502   34.8390 H   0  0  0  0  0  0  0  0  0  0  0  0
   39.6697   66.7997   33.9726 H   0  0  0  0  0  0  0  0  0  0  0  0
   35.7297   66.8061   35.8415 H   0  0  0  0  0  0  0  0  0  0  0  0
   35.9410   64.5792   36.3701 H   0  0  0  0  0  0  0  0  0  0  0  0
   36.9681   68.3839   36.9365 H   0  0  0  0  0  0  0  0  0  0  0  0
   37.8865   72.1919   33.6637 H   0  0  0  0  0  0  0  0  0  0  0  0
   37.8107   70.5664   32.9946 H   0  0  0  0  0  0  0  0  0  0  0  0
   37.4606   55.6656   31.2802 H   0  0  0  0  0  0  0  0  0  0  0  0
 30 31  1  0
 28 29  1  0
 27 28  1  0
 26 27  1  0
 25 26  1  0
 24 25  1  0
 24 28  1  0
 22 23  1  0
 22 24  1  0
 20 21  1  0
 19 20  1  0
 19 22  1  0
 18 19  1  0
 16 17  1  0
 16 18  1  0
 15 16  1  0
 15 21  1  0
 14 15  1  0
 13 14  1  0
 13 17  1  0
 12 13  1  0
 11 12  1  0
  9 10  1  0
  9 11  1  0
  8  9  1  0
  7  8  1  0
  6  7  1  0
  6 30  1  0
  5  6  1  0
  4  5  1  0
  3  4  1  0
  3 31  1  0
  2  3  1  0
  1  2  1  0
 31 52  1  0
 29 50  1  0
 29 51  1  0
 25 49  1  0
 21 48  1  0
 20 47  1  0
 18 46  1  0
 12 45  1  0
 11 43  1  0
 11 44  1  0
 10 40  1  0
 10 41  1  0
 10 42  1  0
  9 39  1  6
  8 37  1  0
  8 38  1  0
  7 36  1  0
  4 35  1  0
  1 32  1  0
  1 33  1  0
  1 34  1  0
M  RAD  8   3   2   4   2   6   2  13   2  15   2  16   2  18   2  19   2
M  CHG  6   5  -1  14  -1  23  -1  26  -1  27  -1  30  -1
M  RAD  6  20   2  21   2  22   2  25   2  28   2  31   2
M  END
>  <_TriposChargeType>  (1) 
USER_CHARGES

$$$$
