@<TRIPOS>MOLECULE
Cpptraj Generated mol2 file.
   52    55     1     0     0
SMALL
USER_CHARGES


@<TRIPOS>ATOM
      1 C1         32.7410   56.2011   29.7091 aa         1 L1      -0.189864
      2 S1         32.8788   55.6854   31.5323 ab         1 L1      -0.237155
      3 C2         33.2617   57.2266   32.2736 ad         1 L1       0.100636
      4 C3         33.0718   58.5764   31.7565 ae         1 L1      -0.074079
      5 N1         33.4494   59.6078   32.4716 af         1 L1      -0.247076
      6 C4         33.8873   59.4617   33.6586 ah         1 L1       0.320750
      7 N2         34.3597   60.5313   34.2865 ai         1 L1      -0.552779
      8 C5         34.6988   60.6918   35.7294 aj         1 L1       0.052737
      9 C6         36.0463   61.3890   36.0770 ak         1 L1       0.135048
     10 C7         37.1888   60.7105   35.3990 an         1 L1      -0.297510
     11 C8         36.3083   61.4776   37.6370 ao         1 L1       0.054031
     12 N3         35.0396   61.9462   38.2815 ap         1 L1      -0.478400
     13 C9         34.6473   63.2205   38.4890 aq         1 L1       0.224390
     14 N4         33.4792   63.5225   39.0521 av         1 L1      -0.258958
     15 C10        33.4045   64.9088   38.9878 aw         1 L1       0.130439
     16 C11        34.4224   65.5783   38.3900 ax         1 L1       0.076369
     17 S2         35.7629   64.5485   38.1516 ay         1 L1      -0.106750
     18 C12        34.3820   66.9263   38.1201 az         1 L1      -0.243243
     19 C13        33.1659   67.6106   38.3883 bb         1 L1       0.009155
     20 C14        32.1665   66.9345   39.1190 bc         1 L1      -0.194683
     21 C15        32.2907   65.6317   39.4355 bd         1 L1      -0.205901
     22 C16        33.0065   68.9736   37.8097 bf         1 L1       0.657657
     23 O1         33.3830   69.2302   36.7154 bg         1 L1      -0.572811
     24 N5         32.7149   69.9772   38.7539 bh         1 L1      -0.226260
     25 C17        32.5871   69.9630   40.0884 bj         1 L1      -0.106773
     26 N6         32.5910   71.1543   40.7130 bk         1 L1      -0.148236
     27 N7         32.7357   72.0819   39.6733 bl         1 L1      -0.226184
     28 C18        32.8490   71.3556   38.6135 bm         1 L1       0.315074
     29 N8         33.0568   71.8672   37.3237 bn         1 L1      -0.854095
     30 N9         33.9919   58.2760   34.3002 bo         1 L1      -0.247076
     31 C19        33.6964   57.1975   33.5772 bp         1 L1      -0.074079
     32 H1         31.8776   56.8509   29.5198 bq         1 L1       0.111746
     33 H2         33.6384   56.7846   29.4692 bs         1 L1       0.111746
     34 H3         32.6759   55.3202   29.0585 bt         1 L1       0.111746
     35 H4         32.6953   58.7408   30.7479 bu         1 L1       0.141446
     36 H5         34.4482   61.3582   33.7098 bv         1 L1       0.356472
     37 H6         33.9491   61.3956   36.1116 bw         1 L1       0.067038
     38 H7         34.6942   59.6874   36.1704 bx         1 L1       0.067038
     39 H8         36.1440   62.4311   35.7486 by         1 L1       0.011606
     40 H9         37.0331   60.6987   34.3132 bz         1 L1       0.083181
     41 H10        38.1819   61.1356   35.5898 cb         1 L1       0.083181
     42 H11        37.2264   59.6635   35.7245 ci         1 L1       0.083181
     43 H12        36.4743   60.4625   38.0185 cj         1 L1       0.071056
     44 H13        37.1111   62.1637   37.9340 ck         1 L1       0.071056
     45 H14        34.3154   61.2680   38.4810 cm         1 L1       0.368490
     46 H15        35.2082   67.4175   37.6146 cn         1 L1       0.171430
     47 H16        31.2682   67.4239   39.4835 ct         1 L1       0.156676
     48 H17        31.4795   65.1970   40.0121 cw         1 L1       0.167805
     49 H18        32.5066   69.0017   40.5785 da         1 L1       0.210520
     50 H19        33.4250   72.8097   37.3057 db         1 L1       0.439383
     51 H20        33.3492   71.1842   36.6366 dc         1 L1       0.439383
     52 H21        33.8574   56.2968   34.1678 dd         1 L1       0.141446
@<TRIPOS>BOND
    1    30    31 1
    2    28    29 1
    3    27    28 1
    4    26    27 1
    5    25    26 1
    6    24    25 1
    7    24    28 1
    8    22    23 1
    9    22    24 1
   10    20    21 1
   11    19    20 1
   12    19    22 1
   13    18    19 1
   14    16    17 1
   15    16    18 1
   16    15    16 1
   17    15    21 1
   18    14    15 1
   19    13    14 1
   20    13    17 1
   21    12    13 1
   22    11    12 1
   23     9    10 1
   24     9    11 1
   25     8     9 1
   26     7     8 1
   27     6     7 1
   28     6    30 1
   29     5     6 1
   30     4     5 1
   31     3     4 1
   32     3    31 1
   33     2     3 1
   34     1     2 1
   35    31    52 1
   36    29    50 1
   37    29    51 1
   38    25    49 1
   39    21    48 1
   40    20    47 1
   41    18    46 1
   42    12    45 1
   43    11    43 1
   44    11    44 1
   45    10    40 1
   46    10    41 1
   47    10    42 1
   48     9    39 1
   49     8    37 1
   50     8    38 1
   51     7    36 1
   52     4    35 1
   53     1    32 1
   54     1    33 1
   55     1    34 1
@<TRIPOS>SUBSTRUCTURE
      1 L1                1 ****               0 ****  **** 
