Cpptraj Generated mol2 file.
     RDKit          3D

 56 59  0  0  0  0  0  0  0  0999 V2000
   35.7997   55.1091   27.8473 C   0  0  0  0  0  0  0  0  0  0  0  0
   36.0211   55.4673   29.1389 S   0  0  0  0  0  0  0  0  0  0  0  0
   36.7096   56.5410   29.5201 C   0  0  0  0  0  3  0  0  0  0  0  0
   37.4244   56.6112   30.7411 C   0  0  0  0  0  3  0  0  0  0  0  0
   38.0334   57.7047   31.2525 N   0  0  0  0  0  2  0  0  0  0  0  0
   38.0553   58.7801   30.3847 C   0  0  0  0  0  3  0  0  0  0  0  0
   38.8212   59.9135   30.6445 N   0  0  0  0  0  0  0  0  0  0  0  0
   38.7838   60.4449   32.0380 C   0  0  0  0  0  0  0  0  0  0  0  0
   40.0187   61.2213   32.3765 C   0  0  2  0  0  0  0  0  0  0  0  0
   41.2920   60.3970   32.1637 C   0  0  0  0  0  0  0  0  0  0  0  0
   39.9255   61.7096   33.8883 C   0  0  0  0  0  0  0  0  0  0  0  0
   38.6046   62.2461   34.3237 N   0  0  0  0  0  0  0  0  0  0  0  0
   38.3302   63.6035   34.1681 C   0  0  0  0  0  3  0  0  0  0  0  0
   39.3303   64.5063   33.9216 N   0  0  0  0  0  2  0  0  0  0  0  0
   38.7172   65.7298   33.8060 C   0  0  0  0  0  3  0  0  0  0  0  0
   37.3738   65.6823   33.8439 C   0  0  0  0  0  3  0  0  0  0  0  0
   36.7351   64.1961   34.3645 S   0  0  0  0  0  0  0  0  0  0  0  0
   36.6871   66.8489   33.5602 C   0  0  0  0  0  3  0  0  0  0  0  0
   37.4034   68.0696   33.2514 C   0  0  0  0  0  3  0  0  0  0  0  0
   38.8106   68.0259   33.1759 C   0  0  0  0  0  3  0  0  0  0  0  0
   39.4842   66.8669   33.4513 C   0  0  0  0  0  3  0  0  0  0  0  0
   36.5737   69.3498   32.9718 C   0  0  0  0  0  3  0  0  0  0  0  0
   36.9170   70.3482   33.5377 O   0  0  0  0  0  1  0  0  0  0  0  0
   35.3882   69.1378   32.3377 N   0  0  0  0  0  0  0  0  0  0  0  0
   34.2992   69.9991   32.3009 C   0  0  0  0  0  3  0  0  0  0  0  0
   33.0247   69.6703   32.0824 C   0  0  0  0  0  3  0  0  0  0  0  0
   32.2649   70.7914   32.3371 N   0  0  0  0  0  0  0  0  0  0  0  0
   30.7916   70.9789   32.4314 C   0  0  0  0  0  0  0  0  0  0  0  0
   33.1249   71.8569   32.6667 N   0  0  0  0  0  2  0  0  0  0  0  0
   34.3445   71.3966   32.6059 C   0  0  0  0  0  3  0  0  0  0  0  0
   37.3301   58.8703   29.1875 N   0  0  0  0  0  2  0  0  0  0  0  0
   36.6605   57.7603   28.8420 C   0  0  0  0  0  3  0  0  0  0  0  0
   36.7031   55.4157   27.3059 H   0  0  0  0  0  0  0  0  0  0  0  0
   35.4786   55.9427   27.2105 H   0  0  0  0  0  0  0  0  0  0  0  0
   35.0420   55.8709   27.6257 H   0  0  0  0  0  0  0  0  0  0  0  0
   37.4606   55.6656   31.2802 H   0  0  0  0  0  0  0  0  0  0  0  0
   38.8459   60.6861   29.9914 H   0  0  0  0  0  0  0  0  0  0  0  0
   37.8840   61.0691   32.1022 H   0  0  0  0  0  0  0  0  0  0  0  0
   38.6439   59.5610   32.6726 H   0  0  0  0  0  0  0  0  0  0  0  0
   40.0170   62.1112   31.7350 H   0  0  0  0  0  0  0  0  0  0  0  0
   41.4575   60.1180   31.1158 H   0  0  0  0  0  0  0  0  0  0  0  0
   42.1745   60.9932   32.4265 H   0  0  0  0  0  0  0  0  0  0  0  0
   41.4032   59.5329   32.8303 H   0  0  0  0  0  0  0  0  0  0  0  0
   40.1587   60.7837   34.4284 H   0  0  0  0  0  0  0  0  0  0  0  0
   40.7405   62.3724   34.2044 H   0  0  0  0  0  0  0  0  0  0  0  0
   37.7736   61.7151   34.0967 H   0  0  0  0  0  0  0  0  0  0  0  0
   35.6072   66.8839   33.6693 H   0  0  0  0  0  0  0  0  0  0  0  0
   39.4095   68.9208   33.0351 H   0  0  0  0  0  0  0  0  0  0  0  0
   40.5648   66.7790   33.5138 H   0  0  0  0  0  0  0  0  0  0  0  0
   35.2290   68.1594   32.1289 H   0  0  0  0  0  0  0  0  0  0  0  0
   32.6020   68.6923   31.8937 H   0  0  0  0  0  0  0  0  0  0  0  0
   30.3594   70.0136   32.7227 H   0  0  0  0  0  0  0  0  0  0  0  0
   30.6292   71.7322   33.2121 H   0  0  0  0  0  0  0  0  0  0  0  0
   30.2886   71.1811   31.4777 H   0  0  0  0  0  0  0  0  0  0  0  0
   35.1728   72.0387   32.8747 H   0  0  0  0  0  0  0  0  0  0  0  0
   36.0389   57.8952   27.9581 H   0  0  0  0  0  0  0  0  0  0  0  0
 31 32  1  0
 29 30  1  0
 27 28  1  0
 27 29  1  0
 26 27  1  0
 25 26  1  0
 25 30  1  0
 24 25  1  0
 22 23  1  0
 22 24  1  0
 20 21  1  0
 19 20  1  0
 19 22  1  0
 18 19  1  0
 16 17  1  0
 16 18  1  0
 15 16  1  0
 15 21  1  0
 14 15  1  0
 13 14  1  0
 13 17  1  0
 12 13  1  0
 11 12  1  0
  9 10  1  0
  9 11  1  0
  8  9  1  0
  7  8  1  0
  6  7  1  0
  6 31  1  0
  5  6  1  0
  4  5  1  0
  3  4  1  0
  3 32  1  0
  2  3  1  0
  1  2  1  0
 32 56  1  0
 30 55  1  0
 28 52  1  0
 28 53  1  0
 28 54  1  0
 26 51  1  0
 24 50  1  0
 21 49  1  0
 20 48  1  0
 18 47  1  0
 12 46  1  0
 11 44  1  0
 11 45  1  0
 10 41  1  0
 10 42  1  0
 10 43  1  0
  9 40  1  6
  8 38  1  0
  8 39  1  0
  7 37  1  0
  4 36  1  0
  1 33  1  0
  1 34  1  0
  1 35  1  0
M  RAD  8   3   2   4   2   6   2  13   2  15   2  16   2  18   2  19   2
M  CHG  5   5  -1  14  -1  23  -1  29  -1  31  -1
M  RAD  7  20   2  21   2  22   2  25   2  26   2  30   2  32   2
M  END
>  <_TriposChargeType>  (1) 
USER_CHARGES

$$$$
