@<TRIPOS>MOLECULE
Cpptraj Generated mol2 file.
   56    59     1     0     0
SMALL
USER_CHARGES


@<TRIPOS>ATOM
      1 C1         35.7092   50.3592   23.4342 C.aa         1 L1      -0.189741
      2 S1         36.0902   50.2766   25.3242 S.ab         1 L1      -0.238286
      3 C2         36.6595   51.9023   25.8440 C.ad         1 L1       0.100356
      4 C3         36.7346   52.1903   27.2344 C.ae         1 L1      -0.074351
      5 N1         37.1601   53.3895   27.6695 N.af         1 L1      -0.246875
      6 C4         37.2815   54.3701   26.7206 C.ah         1 L1       0.321304
      7 N2         37.7152   55.6576   27.1627 N.ai         1 L1      -0.553248
      8 C5         37.6778   56.1890   28.5562 C.aj         1 L1       0.053236
      9 C6         38.9127   56.9654   28.8947 C.ak         1 L1       0.134164
     10 C7         40.1860   56.1411   28.6819 C.an         1 L1      -0.295713
     11 C8         38.8195   57.4537   30.4065 C.ao         1 L1       0.054839
     12 N3         37.4986   57.9902   30.8419 N.ap         1 L1      -0.484485
     13 C9         37.2242   59.3476   30.6863 C.aq         1 L1       0.224856
     14 N4         38.2243   60.2504   30.4398 N.av         1 L1      -0.253537
     15 C10        37.6112   61.4739   30.3242 C.aw         1 L1       0.122408
     16 C11        36.2678   61.4264   30.3621 C.ax         1 L1       0.079940
     17 S2         35.6291   59.9402   30.8827 S.ay         1 L1      -0.133930
     18 C12        35.5811   62.5930   30.0784 C.az         1 L1      -0.244627
     19 C13        36.2974   63.8137   29.7696 C.bb         1 L1       0.006180
     20 C14        37.7046   63.7700   29.6941 C.bc         1 L1      -0.203404
     21 C15        38.3782   62.6110   29.9695 C.bd         1 L1      -0.208917
     22 C16        35.4677   65.0939   29.4900 C.bf         1 L1       0.670618
     23 O1         35.8110   66.0923   30.0559 O.bg         1 L1      -0.600860
     24 N5         34.2822   64.8819   28.8559 N.bh         1 L1      -0.434962
     25 C17        33.1932   65.7432   28.8191 C.bj         1 L1       0.012475
     26 C18        31.9187   65.4144   28.6006 C.bk         1 L1      -0.177123
     27 N6         31.1589   66.5355   28.8553 N.bl         1 L1       0.043809
     28 C19        29.6856   66.7230   28.9496 C.bm         1 L1      -0.164124
     29 N7         32.0189   67.6010   29.1849 N.bn         1 L1      -0.177162
     30 C20        33.2385   67.1407   29.1241 C.bo         1 L1      -0.131318
     31 N8         37.2478   54.2274   25.3915 N.bp         1 L1      -0.246875
     32 C21        36.8366   53.0164   24.9198 C.bq         1 L1      -0.074351
     33 H1         36.6126   50.6658   22.8928 H.bs         1 L1       0.111504
     34 H2         35.4148   49.3643   23.0780 H.bt         1 L1       0.111504
     35 H3         34.9515   51.1210   23.2126 H.bu         1 L1       0.111504
     36 H4         36.4509   51.4905   28.0189 H.bv         1 L1       0.140656
     37 H5         37.9554   56.2594   26.3854 H.bw         1 L1       0.356070
     38 H6         36.7780   56.8132   28.6204 H.bx         1 L1       0.066243
     39 H7         37.5379   55.3051   29.1908 H.by         1 L1       0.066243
     40 H8         38.9110   57.8553   28.2532 H.bz         1 L1       0.013940
     41 H9         40.3515   55.8621   27.6340 H.cb         1 L1       0.080953
     42 H10        41.0685   56.7373   28.9447 H.ci         1 L1       0.080953
     43 H11        40.2972   55.2770   29.3485 H.cj         1 L1       0.080953
     44 H12        39.0527   56.5278   30.9466 H.ck         1 L1       0.071641
     45 H13        39.6345   58.1165   30.7226 H.cm         1 L1       0.071641
     46 H14        36.6676   57.4592   30.6149 H.cn         1 L1       0.355481
     47 H15        34.5012   62.6280   30.1875 H.ct         1 L1       0.175537
     48 H16        38.3035   64.6649   29.5533 H.cw         1 L1       0.139389
     49 H17        39.4588   62.5231   30.0320 H.da         1 L1       0.157739
     50 H18        34.1230   63.9035   28.6471 H.db         1 L1       0.302684
     51 H19        31.4960   64.4364   28.4119 H.dc         1 L1       0.158058
     52 H20        29.2534   65.7577   29.2409 H.dd         1 L1       0.106628
     53 H21        29.5232   67.4763   29.7303 H.de         1 L1       0.106628
     54 H22        29.1826   66.9252   27.9959 H.df         1 L1       0.106628
     55 H23        34.0668   67.7828   29.3929 H.dg         1 L1       0.196468
     56 H24        36.7648   52.8567   23.8449 H.dh         1 L1       0.140656
@<TRIPOS>BOND
    1    31    32 1
    2    29    30 1
    3    27    28 1
    4    27    29 1
    5    26    27 1
    6    25    26 1
    7    25    30 1
    8    24    25 1
    9    22    23 1
   10    22    24 1
   11    20    21 1
   12    19    20 1
   13    19    22 1
   14    18    19 1
   15    16    17 1
   16    16    18 1
   17    15    16 1
   18    15    21 1
   19    14    15 1
   20    13    14 1
   21    13    17 1
   22    12    13 1
   23    11    12 1
   24     9    10 1
   25     9    11 1
   26     8     9 1
   27     7     8 1
   28     6     7 1
   29     6    31 1
   30     5     6 1
   31     4     5 1
   32     3     4 1
   33     3    32 1
   34     2     3 1
   35     1     2 1
   36    32    56 1
   37    30    55 1
   38    28    52 1
   39    28    53 1
   40    28    54 1
   41    26    51 1
   42    24    50 1
   43    21    49 1
   44    20    48 1
   45    18    47 1
   46    12    46 1
   47    11    44 1
   48    11    45 1
   49    10    41 1
   50    10    42 1
   51    10    43 1
   52     9    40 1
   53     8    38 1
   54     8    39 1
   55     7    37 1
   56     4    36 1
   57     1    33 1
   58     1    34 1
   59     1    35 1
@<TRIPOS>SUBSTRUCTURE
      1 L1                1 L.****               0 L.****  L.**** 
