Cpptraj Generated mol2 file.
     RDKit          3D

 68 71  0  0  0  0  0  0  0  0999 V2000
   27.9770   56.6456   27.4314 C   0  0  0  0  0  0  0  0  0  0  0  0
   28.6940   55.4371   27.7943 O   0  0  0  0  0  0  0  0  0  0  0  0
   29.9938   55.1940   27.4696 C   0  0  0  0  0  3  0  0  0  0  0  0
   30.7598   56.1318   26.7333 C   0  0  0  0  0  3  0  0  0  0  0  0
   32.0937   55.7812   26.4208 C   0  0  0  0  0  3  0  0  0  0  0  0
   32.5894   54.4760   26.7018 C   0  0  0  0  0  3  0  0  0  0  0  0
   33.9288   54.1926   26.2319 C   0  0  0  0  0  0  0  0  0  0  0  0
   35.0392   54.9480   26.9477 N   0  0  0  0  0  0  0  0  0  0  0  0
   36.5163   54.9819   26.1256 S   0  0  0  0  0  4  0  0  0  0  0  0
   37.2730   53.8041   26.6444 O   0  0  0  0  0  1  0  0  0  0  0  0
   36.1885   55.1072   24.7633 O   0  0  0  0  0  1  0  0  0  0  0  0
   37.2314   56.5730   26.6552 C   0  0  0  0  0  3  0  0  0  0  0  0
   37.9818   56.7649   27.8576 C   0  0  0  0  0  3  0  0  0  0  0  0
   38.2741   58.0216   28.3461 C   0  0  0  0  0  3  0  0  0  0  0  0
   38.0776   59.1559   27.5853 C   0  0  0  0  0  3  0  0  0  0  0  0
   37.4484   59.0132   26.3793 C   0  0  0  0  0  3  0  0  0  0  0  0
   36.8698   57.7814   25.9968 C   0  0  0  0  0  3  0  0  0  0  0  0
   38.4459   60.3540   28.0937 N   0  0  0  0  0  2  0  0  0  0  0  0
   38.8659   60.1965   29.3680 C   0  0  0  0  0  3  0  0  0  0  0  0
   39.3356   61.2608   30.0690 N   0  0  0  0  0  0  0  0  0  0  0  0
   39.7223   61.1732   31.4946 C   0  0  0  0  0  0  0  0  0  0  0  0
   40.1509   62.5920   32.0159 C   0  0  1  0  0  0  0  0  0  0  0  0
   40.3982   62.5059   33.6521 C   0  0  0  0  0  0  0  0  0  0  0  0
   39.2226   62.6604   34.4136 N   0  0  0  0  0  0  0  0  0  0  0  0
   38.8881   63.9543   34.6077 C   0  0  0  0  0  3  0  0  0  0  0  0
   39.9245   64.8643   34.4928 N   0  0  0  0  0  2  0  0  0  0  0  0
   39.6860   66.1896   34.6078 C   0  0  0  0  0  3  0  0  0  0  0  0
   38.3903   66.6254   34.9349 C   0  0  0  0  0  3  0  0  0  0  0  0
   37.5733   68.1373   35.3732 S   0  0  0  0  0  0  0  0  0  0  0  0
   38.9634   69.3549   35.3352 C   0  0  0  0  0  0  0  0  0  0  0  0
   37.3267   65.7084   35.0074 C   0  0  0  0  0  3  0  0  0  0  0  0
   37.5582   64.3591   34.8177 N   0  0  0  0  0  2  0  0  0  0  0  0
   41.3563   63.2959   31.2315 C   0  0  0  0  0  0  0  0  0  0  0  0
   41.3232   64.7670   31.4893 C   0  0  0  0  0  3  0  0  0  0  0  0
   42.2275   65.3501   32.2799 N   0  0  0  0  0  0  0  0  0  0  0  0
   40.3265   65.4370   31.2821 O   0  0  0  0  0  1  0  0  0  0  0  0
   39.0012   58.4952   29.8636 S   0  0  0  0  0  0  0  0  0  0  0  0
   31.8051   53.5347   27.4236 C   0  0  0  0  0  3  0  0  0  0  0  0
   30.4667   53.8800   27.7081 C   0  0  0  0  0  3  0  0  0  0  0  0
   26.9599   56.5820   27.8375 H   0  0  0  0  0  0  0  0  0  0  0  0
   28.4330   57.5898   27.7536 H   0  0  0  0  0  0  0  0  0  0  0  0
   27.9000   56.6142   26.3375 H   0  0  0  0  0  0  0  0  0  0  0  0
   30.4475   57.1071   26.3717 H   0  0  0  0  0  0  0  0  0  0  0  0
   32.6724   56.5291   25.8866 H   0  0  0  0  0  0  0  0  0  0  0  0
   34.1332   53.1327   26.4271 H   0  0  0  0  0  0  0  0  0  0  0  0
   34.0108   54.3351   25.1473 H   0  0  0  0  0  0  0  0  0  0  0  0
   34.7365   55.9188   26.8825 H   0  0  0  0  0  0  0  0  0  0  0  0
   38.0745   55.9317   28.5480 H   0  0  0  0  0  0  0  0  0  0  0  0
   37.1978   59.8777   25.7718 H   0  0  0  0  0  0  0  0  0  0  0  0
   36.2708   57.7166   25.0933 H   0  0  0  0  0  0  0  0  0  0  0  0
   39.6810   62.0206   29.4966 H   0  0  0  0  0  0  0  0  0  0  0  0
   38.8491   60.7571   32.0121 H   0  0  0  0  0  0  0  0  0  0  0  0
   40.5706   60.5236   31.7430 H   0  0  0  0  0  0  0  0  0  0  0  0
   39.2595   63.2261   31.9335 H   0  0  0  0  0  0  0  0  0  0  0  0
   40.8949   61.5392   33.8014 H   0  0  0  0  0  0  0  0  0  0  0  0
   41.1678   63.2602   33.8574 H   0  0  0  0  0  0  0  0  0  0  0  0
   38.4322   62.1024   34.7103 H   0  0  0  0  0  0  0  0  0  0  0  0
   40.4593   66.9427   34.4640 H   0  0  0  0  0  0  0  0  0  0  0  0
   39.6327   69.1656   36.1835 H   0  0  0  0  0  0  0  0  0  0  0  0
   39.5162   69.2804   34.3906 H   0  0  0  0  0  0  0  0  0  0  0  0
   38.5622   70.3477   35.5738 H   0  0  0  0  0  0  0  0  0  0  0  0
   36.2456   65.8325   35.0498 H   0  0  0  0  0  0  0  0  0  0  0  0
   42.2611   62.7143   31.4474 H   0  0  0  0  0  0  0  0  0  0  0  0
   41.2066   63.1388   30.1562 H   0  0  0  0  0  0  0  0  0  0  0  0
   43.1706   64.9803   32.2754 H   0  0  0  0  0  0  0  0  0  0  0  0
   41.9135   66.1924   32.7470 H   0  0  0  0  0  0  0  0  0  0  0  0
   32.2493   52.5886   27.7185 H   0  0  0  0  0  0  0  0  0  0  0  0
   29.8375   53.2027   28.2780 H   0  0  0  0  0  0  0  0  0  0  0  0
 38 39  1  0
 34 35  1  0
 34 36  1  0
 33 34  1  0
 31 32  1  0
 29 30  1  0
 28 29  1  0
 28 31  1  0
 27 28  1  0
 26 27  1  0
 25 26  1  0
 25 32  1  0
 24 25  1  0
 23 24  1  0
 22 23  1  0
 22 33  1  0
 21 22  1  0
 20 21  1  0
 19 20  1  0
 19 37  1  0
 18 19  1  0
 16 17  1  0
 15 16  1  0
 15 18  1  0
 14 15  1  0
 14 37  1  0
 13 14  1  0
 12 13  1  0
 12 17  1  0
  9 10  1  0
  9 11  1  0
  9 12  1  0
  8  9  1  0
  7  8  1  0
  6  7  1  0
  6 38  1  0
  5  6  1  0
  4  5  1  0
  3  4  1  0
  3 39  1  0
  2  3  1  0
  1  2  1  0
 39 68  1  0
 38 67  1  0
 35 65  1  0
 35 66  1  0
 33 63  1  0
 33 64  1  0
 31 62  1  0
 30 59  1  0
 30 60  1  0
 30 61  1  0
 27 58  1  0
 24 57  1  0
 23 55  1  0
 23 56  1  0
 22 54  1  1
 21 52  1  0
 21 53  1  0
 20 51  1  0
 17 50  1  0
 16 49  1  0
 13 48  1  0
  8 47  1  0
  7 45  1  0
  7 46  1  0
  5 44  1  0
  4 43  1  0
  1 40  1  0
  1 41  1  0
  1 42  1  0
M  RAD  8   3   2   4   2   5   2   6   2  12   2  13   2  14   2  15   2
M  RAD  8  16   2  17   2  19   2  25   2  27   2  28   2  31   2  34   2
M  CHG  6  10  -1  11  -1  18  -1  26  -1  32  -1  36  -1
M  RAD  2  38   2  39   2
M  END
>  <_TriposChargeType>  (1) 
USER_CHARGES

$$$$
