@<TRIPOS>MOLECULE
Cpptraj Generated mol2 file.
   68    71     1     0     0
SMALL
USER_CHARGES


@<TRIPOS>ATOM
      1 C1         26.9269   56.1777   26.1876 aa         1 L1       0.060903
      2 O1         27.6439   54.9692   26.5505 ab         1 L1      -0.354606
      3 C2         28.9437   54.7261   26.2258 ad         1 L1       0.278882
      4 C3         29.7097   55.6639   25.4895 ae         1 L1      -0.222782
      5 C4         31.0436   55.3133   25.1770 af         1 L1      -0.200382
      6 C5         31.5393   54.0081   25.4580 ah         1 L1       0.071357
      7 C6         32.8787   53.7247   24.9881 ai         1 L1       0.152653
      8 N1         33.9891   54.4801   25.7039 aj         1 L1      -0.710991
      9 S1         35.4662   54.5140   24.8818 ak         1 L1       1.090598
     10 O2         36.2229   53.3362   25.4006 an         1 L1      -0.566352
     11 O3         35.1384   54.6393   23.5195 ao         1 L1      -0.566352
     12 C7         36.1813   56.1051   25.4114 ap         1 L1       0.022697
     13 C8         36.9317   56.2970   26.6138 aq         1 L1      -0.253668
     14 C9         37.2240   57.5537   27.1023 av         1 L1       0.078412
     15 C10        37.0275   58.6880   26.3415 aw         1 L1       0.127250
     16 C11        36.3983   58.5453   25.1355 ax         1 L1      -0.203719
     17 C12        35.8197   57.3135   24.7530 ay         1 L1      -0.194748
     18 N2         37.3958   59.8861   26.8499 az         1 L1      -0.256952
     19 C13        37.8158   59.7286   28.1242 bb         1 L1       0.221215
     20 N3         38.2855   60.7929   28.8252 bc         1 L1      -0.476222
     21 C14        38.6722   60.7053   30.2508 bd         1 L1       0.052988
     22 C15        39.1008   62.1241   30.7721 bf         1 L1       0.070487
     23 C16        39.3481   62.0380   32.4083 bg         1 L1       0.052533
     24 N4         38.1725   62.1925   33.1698 bh         1 L1      -0.557278
     25 C17        37.6628   63.4257   33.6288 bj         1 L1       0.319449
     26 N5         38.5539   64.4442   34.0140 bk         1 L1      -0.247315
     27 C18        38.0426   65.5754   34.4805 bl         1 L1      -0.075376
     28 C19        36.6699   65.7629   34.4829 bm         1 L1       0.101957
     29 S2         35.8529   67.2748   34.9212 bn         1 L1      -0.220428
     30 C20        37.2430   68.4924   34.8832 bo         1 L1      -0.193639
     31 C21        35.8720   64.6642   34.1914 bp         1 L1      -0.075376
     32 N6         36.3513   63.5331   33.6974 bq         1 L1      -0.247315
     33 C22        40.3062   62.8280   29.9877 bs         1 L1      -0.140102
     34 C23        40.2731   64.2991   30.2455 bt         1 L1       0.729504
     35 N7         41.1774   64.8822   31.0361 bu         1 L1      -0.969391
     36 O4         39.2764   64.9691   30.0383 bv         1 L1      -0.618869
     37 S3         37.9511   58.0273   28.6198 bw         1 L1      -0.104358
     38 C24        30.7550   53.0668   26.1798 bx         1 L1      -0.200382
     39 C25        29.4166   53.4121   26.4643 by         1 L1      -0.222782
     40 H1         25.9098   56.1141   26.5937 bz         1 L1       0.058773
     41 H2         27.3829   57.1219   26.5098 cb         1 L1       0.058773
     42 H3         26.8499   56.1463   25.0937 ci         1 L1       0.058773
     43 H4         29.3974   56.6392   25.1279 cj         1 L1       0.155586
     44 H5         31.6223   56.0612   24.6428 ck         1 L1       0.152188
     45 H6         33.0831   52.6648   25.1833 cm         1 L1       0.062576
     46 H7         32.9607   53.8672   23.9035 cn         1 L1       0.062576
     47 H8         33.6864   55.4509   25.6387 ct         1 L1       0.375429
     48 H9         37.0244   55.4638   27.3042 cw         1 L1       0.176314
     49 H10        36.1477   59.4098   24.5280 da         1 L1       0.174126
     50 H11        35.2207   57.2487   23.8495 db         1 L1       0.169318
     51 H12        38.6309   61.5527   28.2528 dc         1 L1       0.368718
     52 H13        37.7990   60.2892   30.7683 dd         1 L1       0.070680
     53 H14        39.5205   60.0557   30.4992 de         1 L1       0.070680
     54 H15        38.2094   62.7582   30.6897 df         1 L1       0.022696
     55 H16        39.8448   61.0713   32.5576 dg         1 L1       0.070817
     56 H17        40.1177   62.7923   32.6136 dh         1 L1       0.070817
     57 H18        37.4673   61.5519   32.8287 di         1 L1       0.361831
     58 H19        38.7347   66.3979   34.6551 dj         1 L1       0.145765
     59 H20        37.9123   68.3031   35.7315 dk         1 L1       0.114508
     60 H21        37.7958   68.4179   33.9386 dl         1 L1       0.114508
     61 H22        36.8418   69.4852   35.1218 dm         1 L1       0.114508
     62 H23        34.7909   64.7883   34.2338 dn         1 L1       0.145765
     63 H24        41.2110   62.2464   30.2036 do         1 L1       0.058638
     64 H25        40.1565   62.6709   28.9124 dp         1 L1       0.058638
     65 H26        42.1205   64.5124   31.0316 dq         1 L1       0.423862
     66 H27        40.8634   65.7245   31.5032 dr         1 L1       0.423862
     67 H28        31.1992   52.1207   26.4747 ds         1 L1       0.152188
     68 H29        28.7874   52.7348   27.0342 dt         1 L1       0.155586
@<TRIPOS>BOND
    1    38    39 1
    2    34    35 1
    3    34    36 1
    4    33    34 1
    5    31    32 1
    6    29    30 1
    7    28    29 1
    8    28    31 1
    9    27    28 1
   10    26    27 1
   11    25    26 1
   12    25    32 1
   13    24    25 1
   14    23    24 1
   15    22    23 1
   16    22    33 1
   17    21    22 1
   18    20    21 1
   19    19    20 1
   20    19    37 1
   21    18    19 1
   22    16    17 1
   23    15    16 1
   24    15    18 1
   25    14    15 1
   26    14    37 1
   27    13    14 1
   28    12    13 1
   29    12    17 1
   30     9    10 1
   31     9    11 1
   32     9    12 1
   33     8     9 1
   34     7     8 1
   35     6     7 1
   36     6    38 1
   37     5     6 1
   38     4     5 1
   39     3     4 1
   40     3    39 1
   41     2     3 1
   42     1     2 1
   43    39    68 1
   44    38    67 1
   45    35    65 1
   46    35    66 1
   47    33    63 1
   48    33    64 1
   49    31    62 1
   50    30    59 1
   51    30    60 1
   52    30    61 1
   53    27    58 1
   54    24    57 1
   55    23    55 1
   56    23    56 1
   57    22    54 1
   58    21    52 1
   59    21    53 1
   60    20    51 1
   61    17    50 1
   62    16    49 1
   63    13    48 1
   64     8    47 1
   65     7    45 1
   66     7    46 1
   67     5    44 1
   68     4    43 1
   69     1    40 1
   70     1    41 1
   71     1    42 1
@<TRIPOS>SUBSTRUCTURE
      1 L1                1 ****               0 ****  **** 
