Cpptraj Generated mol2 file.
     RDKit          3D

 58 61  0  0  0  0  0  0  0  0999 V2000
   35.7997   55.1091   27.8473 C   0  0  0  0  0  0  0  0  0  0  0  0
   36.0211   55.4673   29.1389 S   0  0  0  0  0  0  0  0  0  0  0  0
   36.7096   56.5410   29.5201 C   0  0  0  0  0  3  0  0  0  0  0  0
   36.6605   57.7603   28.8420 C   0  0  0  0  0  3  0  0  0  0  0  0
   37.3301   58.8703   29.1875 N   0  0  0  0  0  2  0  0  0  0  0  0
   38.0553   58.7801   30.3847 C   0  0  0  0  0  3  0  0  0  0  0  0
   38.8212   59.9135   30.6445 N   0  0  0  0  0  0  0  0  0  0  0  0
   39.2188   59.8269   31.9973 C   0  0  0  0  0  0  0  0  0  0  0  0
   40.1034   61.0979   32.3364 C   0  0  2  0  0  0  0  0  0  0  0  0
   40.7263   60.8804   33.7769 C   0  0  0  0  0  0  0  0  0  0  0  0
   39.3162   62.4514   32.1520 C   0  0  0  0  0  0  0  0  0  0  0  0
   38.2823   62.7115   33.2013 N   0  0  0  0  0  0  0  0  0  0  0  0
   38.3113   63.7647   34.0684 C   0  0  0  0  0  3  0  0  0  0  0  0
   37.2776   63.8450   34.8859 N   0  0  0  0  0  2  0  0  0  0  0  0
   37.4190   65.0121   35.5281 C   0  0  0  0  0  3  0  0  0  0  0  0
   38.5657   65.7924   35.2443 C   0  0  0  0  0  3  0  0  0  0  0  0
   39.4667   65.1485   33.9317 S   0  0  0  0  0  0  0  0  0  0  0  0
   38.7440   67.0196   35.8691 C   0  0  0  0  0  3  0  0  0  0  0  0
   37.7362   67.5153   36.7374 C   0  0  0  0  0  3  0  0  0  0  0  0
   36.5275   66.7580   36.8869 C   0  0  0  0  0  3  0  0  0  0  0  0
   36.4052   65.4843   36.3306 C   0  0  0  0  0  3  0  0  0  0  0  0
   37.8953   68.7722   37.4488 C   0  0  0  0  0  3  0  0  0  0  0  0
   36.9072   69.2983   38.0150 O   0  0  0  0  0  1  0  0  0  0  0  0
   39.1336   69.2699   37.5657 N   0  0  0  0  0  0  0  0  0  0  0  0
   39.3776   70.5012   38.2552 C   0  0  0  0  0  0  0  0  0  0  0  0
   40.7593   70.7325   38.5147 C   0  0  0  0  0  3  0  0  0  0  0  0
   41.4843   71.7109   37.9599 N   0  0  0  0  0  2  0  0  0  0  0  0
   42.5661   71.7730   38.8352 C   0  0  0  0  0  3  0  0  0  0  0  0
   42.5484   70.8617   39.7717 N   0  0  0  0  0  2  0  0  0  0  0  0
   41.4012   70.1793   39.5989 N   0  0  0  0  0  0  0  0  0  0  0  0
   41.0248   69.0422   40.4478 C   0  0  0  0  0  0  0  0  0  0  0  0
   38.0334   57.7047   31.2525 N   0  0  0  0  0  2  0  0  0  0  0  0
   37.4244   56.6112   30.7411 C   0  0  0  0  0  3  0  0  0  0  0  0
   35.0753   55.9328   27.8596 H   0  0  0  0  0  0  0  0  0  0  0  0
   36.6237   55.3662   27.1703 H   0  0  0  0  0  0  0  0  0  0  0  0
   35.4786   55.9427   27.2105 H   0  0  0  0  0  0  0  0  0  0  0  0
   36.0389   57.8952   27.9581 H   0  0  0  0  0  0  0  0  0  0  0  0
   38.8459   60.6861   29.9914 H   0  0  0  0  0  0  0  0  0  0  0  0
   38.3619   59.9027   32.6781 H   0  0  0  0  0  0  0  0  0  0  0  0
   39.7426   58.8903   32.2251 H   0  0  0  0  0  0  0  0  0  0  0  0
   40.8886   61.0798   31.5705 H   0  0  0  0  0  0  0  0  0  0  0  0
   41.4051   61.7007   34.0410 H   0  0  0  0  0  0  0  0  0  0  0  0
   39.8863   60.8406   34.4814 H   0  0  0  0  0  0  0  0  0  0  0  0
   41.2438   59.9180   33.8738 H   0  0  0  0  0  0  0  0  0  0  0  0
   40.0529   63.2636   32.1221 H   0  0  0  0  0  0  0  0  0  0  0  0
   38.9466   62.4244   31.1194 H   0  0  0  0  0  0  0  0  0  0  0  0
   37.4390   62.1521   33.1967 H   0  0  0  0  0  0  0  0  0  0  0  0
   39.5987   67.5953   35.5264 H   0  0  0  0  0  0  0  0  0  0  0  0
   35.7032   67.2151   37.4264 H   0  0  0  0  0  0  0  0  0  0  0  0
   35.6018   64.7736   36.5004 H   0  0  0  0  0  0  0  0  0  0  0  0
   39.8913   68.7223   37.1755 H   0  0  0  0  0  0  0  0  0  0  0  0
   38.8561   71.2963   37.7083 H   0  0  0  0  0  0  0  0  0  0  0  0
   38.8474   70.3721   39.2069 H   0  0  0  0  0  0  0  0  0  0  0  0
   43.3512   72.5158   38.8851 H   0  0  0  0  0  0  0  0  0  0  0  0
   40.0603   68.5944   40.1785 H   0  0  0  0  0  0  0  0  0  0  0  0
   41.7874   68.2759   40.2618 H   0  0  0  0  0  0  0  0  0  0  0  0
   40.9651   69.3022   41.5119 H   0  0  0  0  0  0  0  0  0  0  0  0
   37.4606   55.6656   31.2802 H   0  0  0  0  0  0  0  0  0  0  0  0
 32 33  1  0
 30 31  1  0
 29 30  1  0
 28 29  1  0
 27 28  1  0
 26 27  1  0
 26 30  1  0
 25 26  1  0
 24 25  1  0
 22 23  1  0
 22 24  1  0
 20 21  1  0
 19 20  1  0
 19 22  1  0
 18 19  1  0
 16 17  1  0
 16 18  1  0
 15 16  1  0
 15 21  1  0
 14 15  1  0
 13 14  1  0
 13 17  1  0
 12 13  1  0
 11 12  1  0
  9 10  1  0
  9 11  1  0
  8  9  1  0
  7  8  1  0
  6  7  1  0
  6 32  1  0
  5  6  1  0
  4  5  1  0
  3  4  1  0
  3 33  1  0
  2  3  1  0
  1  2  1  0
 33 58  1  0
 31 55  1  0
 31 56  1  0
 31 57  1  0
 28 54  1  0
 25 52  1  0
 25 53  1  0
 24 51  1  0
 21 50  1  0
 20 49  1  0
 18 48  1  0
 12 47  1  0
 11 45  1  0
 11 46  1  0
 10 42  1  0
 10 43  1  0
 10 44  1  0
  9 41  1  6
  8 39  1  0
  8 40  1  0
  7 38  1  0
  4 37  1  0
  1 34  1  0
  1 35  1  0
  1 36  1  0
M  RAD  8   3   2   4   2   6   2  13   2  15   2  16   2  18   2  19   2
M  CHG  6   5  -1  14  -1  23  -1  27  -1  29  -1  32  -1
M  RAD  6  20   2  21   2  22   2  26   2  28   2  33   2
M  END
>  <_TriposChargeType>  (1) 
USER_CHARGES

$$$$
