@<TRIPOS>MOLECULE
Cpptraj Generated mol2 file.
   58    61     1     0     0
SMALL
USER_CHARGES


@<TRIPOS>ATOM
      1 C1         31.9399   55.2621   29.3652 aa         1 L1      -0.189873
      2 S1         32.4869   54.7768   31.0305 ab         1 L1      -0.237143
      3 C2         33.4114   56.0834   31.7989 ad         1 L1       0.100604
      4 C3         33.2703   57.4553   31.4516 ae         1 L1      -0.074451
      5 N1         33.8964   58.4408   32.1686 af         1 L1      -0.246244
      6 C4         34.6641   58.0411   33.2239 ah         1 L1       0.321290
      7 N2         35.4451   59.0131   33.8235 ai         1 L1      -0.553841
      8 C5         35.8427   58.9265   35.1763 aj         1 L1       0.052608
      9 C6         36.7273   60.1975   35.5154 ak         1 L1       0.134776
     10 C7         37.3502   59.9800   36.9559 an         1 L1      -0.295223
     11 C8         35.9401   61.5510   35.3310 ao         1 L1       0.056162
     12 N3         34.9062   61.8111   36.3803 ap         1 L1      -0.484619
     13 C9         34.9352   62.8643   37.2474 aq         1 L1       0.225313
     14 N4         33.9015   62.9446   38.0649 av         1 L1      -0.262692
     15 C10        34.0429   64.1117   38.7071 aw         1 L1       0.126303
     16 C11        35.1896   64.8920   38.4233 ax         1 L1       0.076460
     17 S2         36.0906   64.2481   37.1107 ay         1 L1      -0.128805
     18 C12        35.3679   66.1192   39.0481 az         1 L1      -0.260062
     19 C13        34.3601   66.6149   39.9164 bb         1 L1       0.007184
     20 C14        33.1514   65.8576   40.0659 bc         1 L1      -0.187037
     21 C15        33.0291   64.5839   39.5096 bd         1 L1      -0.206498
     22 C16        34.5192   67.8718   40.6278 bf         1 L1       0.672792
     23 O1         33.5311   68.3979   41.1940 bg         1 L1      -0.622386
     24 N5         35.7575   68.3695   40.7447 bh         1 L1      -0.536317
     25 C17        36.0015   69.6008   41.4342 bj         1 L1       0.128127
     26 C18        37.3832   69.8321   41.6937 bk         1 L1       0.023582
     27 N6         38.1082   70.8105   41.1389 bl         1 L1      -0.272499
     28 C19        39.1900   70.8726   42.0142 bm         1 L1      -0.083850
     29 N7         39.1723   69.9613   42.9507 bn         1 L1      -0.190280
     30 N8         38.0251   69.2789   42.7779 bo         1 L1       0.031096
     31 C20        37.6487   68.1418   43.6268 bp         1 L1      -0.170281
     32 N9         34.9154   56.7396   33.5498 bq         1 L1      -0.246244
     33 C21        34.1361   55.7554   32.9607 bs         1 L1      -0.074451
     34 H1         31.2155   56.0858   29.3775 bt         1 L1       0.111720
     35 H2         32.7639   55.5192   28.6882 bu         1 L1       0.111720
     36 H3         31.4446   54.3540   28.9999 bv         1 L1       0.111720
     37 H4         32.5472   57.7549   30.6945 bw         1 L1       0.140933
     38 H5         35.2643   59.9083   33.3876 bx         1 L1       0.356202
     39 H6         34.9858   59.0023   35.8571 by         1 L1       0.067684
     40 H7         36.3665   57.9899   35.4041 bz         1 L1       0.067684
     41 H8         37.5125   60.1794   34.7495 cb         1 L1       0.011311
     42 H9         38.0290   60.8003   37.2200 ci         1 L1       0.081377
     43 H10        36.5102   59.9402   37.6604 cj         1 L1       0.081377
     44 H11        37.8677   59.0176   37.0528 ck         1 L1       0.081377
     45 H12        36.6768   62.3632   35.3011 cm         1 L1       0.068516
     46 H13        35.5705   61.5240   34.2984 cn         1 L1       0.068516
     47 H14        34.0629   61.2517   36.3757 ct         1 L1       0.364471
     48 H15        36.2226   66.6949   38.7054 cw         1 L1       0.146418
     49 H16        32.3271   66.3147   40.6054 da         1 L1       0.172711
     50 H17        32.2257   63.8732   39.6794 db         1 L1       0.164110
     51 H18        36.5152   67.8219   40.3545 dc         1 L1       0.311891
     52 H19        35.4800   70.3959   40.8873 dd         1 L1       0.074118
     53 H20        35.4713   69.4717   42.3859 de         1 L1       0.074118
     54 H21        39.9751   71.6154   42.0641 df         1 L1       0.202517
     55 H22        36.6842   67.6940   43.3575 dg         1 L1       0.118358
     56 H23        38.4113   67.3755   43.4408 dh         1 L1       0.118358
     57 H24        37.5890   68.4018   44.6909 di         1 L1       0.118358
     58 H25        34.2623   54.7168   33.2628 dj         1 L1       0.140933
@<TRIPOS>BOND
    1    32    33 1
    2    30    31 1
    3    29    30 1
    4    28    29 1
    5    27    28 1
    6    26    27 1
    7    26    30 1
    8    25    26 1
    9    24    25 1
   10    22    23 1
   11    22    24 1
   12    20    21 1
   13    19    20 1
   14    19    22 1
   15    18    19 1
   16    16    17 1
   17    16    18 1
   18    15    16 1
   19    15    21 1
   20    14    15 1
   21    13    14 1
   22    13    17 1
   23    12    13 1
   24    11    12 1
   25     9    10 1
   26     9    11 1
   27     8     9 1
   28     7     8 1
   29     6     7 1
   30     6    32 1
   31     5     6 1
   32     4     5 1
   33     3     4 1
   34     3    33 1
   35     2     3 1
   36     1     2 1
   37    33    58 1
   38    31    55 1
   39    31    56 1
   40    31    57 1
   41    28    54 1
   42    25    52 1
   43    25    53 1
   44    24    51 1
   45    21    50 1
   46    20    49 1
   47    18    48 1
   48    12    47 1
   49    11    45 1
   50    11    46 1
   51    10    42 1
   52    10    43 1
   53    10    44 1
   54     9    41 1
   55     8    39 1
   56     8    40 1
   57     7    38 1
   58     4    37 1
   59     1    34 1
   60     1    35 1
   61     1    36 1
@<TRIPOS>SUBSTRUCTURE
      1 L1                1 ****               0 ****  **** 
