Cpptraj Generated mol2 file.
     RDKit          3D

 45 47  0  0  0  0  0  0  0  0999 V2000
   35.7997   55.1091   27.8473 C   0  0  0  0  0  0  0  0  0  0  0  0
   36.0211   55.4673   29.1389 S   0  0  0  0  0  0  0  0  0  0  0  0
   36.7096   56.5410   29.5201 C   0  0  0  0  0  3  0  0  0  0  0  0
   36.6605   57.7603   28.8420 C   0  0  0  0  0  3  0  0  0  0  0  0
   37.3301   58.8703   29.1875 N   0  0  0  0  0  2  0  0  0  0  0  0
   38.0553   58.7801   30.3847 C   0  0  0  0  0  3  0  0  0  0  0  0
   38.8212   59.9135   30.6445 N   0  0  0  0  0  0  0  0  0  0  0  0
   38.9043   60.4608   31.9762 C   0  0  0  0  0  0  0  0  0  0  0  0
   39.8451   61.6340   32.0487 C   0  0  1  0  0  0  0  0  0  0  0  0
   39.5579   62.7968   31.0938 C   0  0  0  0  0  0  0  0  0  0  0  0
   39.8168   62.1733   33.5690 C   0  0  0  0  0  0  0  0  0  0  0  0
   38.4976   62.4708   34.1573 N   0  0  0  0  0  0  0  0  0  0  0  0
   38.2220   63.6815   34.8788 C   0  0  0  0  0  3  0  0  0  0  0  0
   38.9129   64.8986   34.6051 C   0  0  0  0  0  3  0  0  0  0  0  0
   38.8353   66.0090   35.3508 N   0  0  0  0  0  2  0  0  0  0  0  0
   37.9604   65.8889   36.3459 C   0  0  0  0  0  3  0  0  0  0  0  0
   37.1690   64.7057   36.6257 C   0  0  0  0  0  3  0  0  0  0  0  0
   37.3478   63.5791   35.9462 N   0  0  0  0  0  2  0  0  0  0  0  0
   37.7161   66.9173   37.2629 N   0  0  0  0  0  0  0  0  0  0  0  0
   36.4467   67.3983   37.4756 C   0  0  0  0  0  3  0  0  0  0  0  0
   36.5852   68.2925   38.5089 C   0  0  0  0  0  3  0  0  0  0  0  0
   37.9843   68.3395   38.8552 C   0  0  0  0  0  3  0  0  0  0  0  0
   38.6345   67.4416   38.1485 N   0  0  0  0  0  2  0  0  0  0  0  0
   38.0334   57.7047   31.2525 N   0  0  0  0  0  2  0  0  0  0  0  0
   37.4244   56.6112   30.7411 C   0  0  0  0  0  3  0  0  0  0  0  0
   36.7792   55.5964   27.7667 H   0  0  0  0  0  0  0  0  0  0  0  0
   35.9003   54.0781   27.4861 H   0  0  0  0  0  0  0  0  0  0  0  0
   35.4786   55.9427   27.2105 H   0  0  0  0  0  0  0  0  0  0  0  0
   36.0389   57.8952   27.9581 H   0  0  0  0  0  0  0  0  0  0  0  0
   38.8459   60.6861   29.9914 H   0  0  0  0  0  0  0  0  0  0  0  0
   37.8827   60.7336   32.2681 H   0  0  0  0  0  0  0  0  0  0  0  0
   39.1408   59.6865   32.7165 H   0  0  0  0  0  0  0  0  0  0  0  0
   40.8731   61.3453   31.7973 H   0  0  0  0  0  0  0  0  0  0  0  0
   40.0309   63.6595   31.5790 H   0  0  0  0  0  0  0  0  0  0  0  0
   40.0590   62.6611   30.1274 H   0  0  0  0  0  0  0  0  0  0  0  0
   38.4754   62.8984   30.9479 H   0  0  0  0  0  0  0  0  0  0  0  0
   40.2647   61.4186   34.2271 H   0  0  0  0  0  0  0  0  0  0  0  0
   40.5190   63.0115   33.6575 H   0  0  0  0  0  0  0  0  0  0  0  0
   37.8946   61.6777   34.3350 H   0  0  0  0  0  0  0  0  0  0  0  0
   39.5726   64.9059   33.7387 H   0  0  0  0  0  0  0  0  0  0  0  0
   36.5498   64.6408   37.5192 H   0  0  0  0  0  0  0  0  0  0  0  0
   35.5343   67.1082   36.9714 H   0  0  0  0  0  0  0  0  0  0  0  0
   35.7737   68.8230   38.9941 H   0  0  0  0  0  0  0  0  0  0  0  0
   38.5991   68.9669   39.4869 H   0  0  0  0  0  0  0  0  0  0  0  0
   37.4606   55.6656   31.2802 H   0  0  0  0  0  0  0  0  0  0  0  0
 24 25  1  0
 22 23  1  0
 21 22  1  0
 20 21  1  0
 19 20  1  0
 19 23  1  0
 17 18  1  0
 16 17  1  0
 16 19  1  0
 15 16  1  0
 14 15  1  0
 13 14  1  0
 13 18  1  0
 12 13  1  0
 11 12  1  0
  9 10  1  0
  9 11  1  0
  8  9  1  0
  7  8  1  0
  6  7  1  0
  6 24  1  0
  5  6  1  0
  4  5  1  0
  3  4  1  0
  3 25  1  0
  2  3  1  0
  1  2  1  0
 25 45  1  0
 22 44  1  0
 21 43  1  0
 20 42  1  0
 17 41  1  0
 14 40  1  0
 12 39  1  0
 11 37  1  0
 11 38  1  0
 10 34  1  0
 10 35  1  0
 10 36  1  0
  9 33  1  6
  8 31  1  0
  8 32  1  0
  7 30  1  0
  4 29  1  0
  1 26  1  0
  1 27  1  0
  1 28  1  0
M  RAD  8   3   2   4   2   6   2  13   2  14   2  16   2  17   2  20   2
M  CHG  5   5  -1  15  -1  18  -1  23  -1  24  -1
M  RAD  3  21   2  22   2  25   2
M  END
>  <_TriposChargeType>  (1) 
USER_CHARGES

$$$$
