@<TRIPOS>MOLECULE
Cpptraj Generated mol2 file.
   45    47     1     0     0
SMALL
USER_CHARGES


@<TRIPOS>ATOM
      1 C1         34.6585   54.0016   30.5345 C.aa         1 L1      -0.189840
      2 S1         34.0789   54.0077   32.3165 S.ab         1 L1      -0.237988
      3 C2         34.5794   55.6685   32.8109 C.ad         1 L1       0.100619
      4 C3         34.8798   56.6972   31.9159 C.ae         1 L1      -0.074211
      5 N1         35.4054   57.8655   32.3075 N.af         1 L1      -0.247118
      6 C4         35.6279   58.0454   33.6166 C.ah         1 L1       0.320307
      7 N2         36.1916   59.2891   33.8908 N.ai         1 L1      -0.554887
      8 C5         36.2747   59.8364   35.2225 C.aj         1 L1       0.053854
      9 C6         37.2155   61.0096   35.2950 C.ak         1 L1       0.132533
     10 C7         36.9283   62.1724   34.3401 C.an         1 L1      -0.292344
     11 C8         37.1872   61.5489   36.8153 C.ao         1 L1       0.053854
     12 N3         35.8680   61.8464   37.4036 N.ap         1 L1      -0.556065
     13 C9         35.5924   63.0571   38.1251 C.aq         1 L1       0.251704
     14 C10        36.2833   64.2742   37.8514 C.av         1 L1      -0.094815
     15 N4         36.2057   65.3846   38.5971 N.aw         1 L1      -0.162191
     16 C11        35.3308   65.2645   39.5922 C.ax         1 L1       0.104728
     17 C12        34.5394   64.0813   39.8720 C.ay         1 L1      -0.081519
     18 N5         34.7182   62.9547   39.1925 N.az         1 L1      -0.223504
     19 N6         35.0865   66.2929   40.5092 N.bb         1 L1       0.031682
     20 C13        33.8171   66.7739   40.7219 C.bc         1 L1      -0.145330
     21 C14        33.9556   67.6681   41.7552 C.bd         1 L1      -0.186960
     22 C15        35.3547   67.7151   42.1015 C.bf         1 L1      -0.116918
     23 N7         36.0049   66.8172   41.3948 N.bg         1 L1      -0.156729
     24 N8         35.4565   57.1439   34.5464 N.bh         1 L1      -0.247118
     25 C16        34.8182   55.9779   34.1735 C.bj         1 L1      -0.074211
     26 H1         35.6380   54.4889   30.4539 H.bk         1 L1       0.111532
     27 H2         34.7591   52.9706   30.1733 H.bl         1 L1       0.111532
     28 H3         34.0323   54.6146   29.8745 H.bm         1 L1       0.111532
     29 H4         34.8346   56.5547   30.8372 H.bn         1 L1       0.141055
     30 H5         36.0136   59.9492   33.1446 H.bo         1 L1       0.357934
     31 H6         35.2531   60.1092   35.5144 H.bp         1 L1       0.064487
     32 H7         36.5112   59.0621   35.9628 H.bq         1 L1       0.064487
     33 H8         38.2435   60.7209   35.0436 H.bs         1 L1       0.013357
     34 H9         37.4013   63.0351   34.8253 H.bt         1 L1       0.077080
     35 H10        37.4294   62.0367   33.3737 H.bu         1 L1       0.077080
     36 H11        35.8458   62.2740   34.1942 H.bv         1 L1       0.077080
     37 H12        37.6351   60.7942   37.4734 H.bw         1 L1       0.064487
     38 H13        37.8894   62.3871   36.9038 H.bx         1 L1       0.064487
     39 H14        35.2650   61.0533   37.5813 H.by         1 L1       0.357145
     40 H15        36.9430   64.2815   36.9850 H.bz         1 L1       0.144621
     41 H16        33.9202   64.0164   40.7655 H.cb         1 L1       0.141843
     42 H17        32.9047   66.4838   40.2177 H.ci         1 L1       0.161178
     43 H18        33.1441   68.1986   42.2404 H.cj         1 L1       0.147324
     44 H19        35.9695   68.3425   42.7332 H.ck         1 L1       0.163172
     45 H20        34.6419   55.2456   34.9600 H.cm         1 L1       0.141055
@<TRIPOS>BOND
    1    24    25 1
    2    22    23 1
    3    21    22 1
    4    20    21 1
    5    19    20 1
    6    19    23 1
    7    17    18 1
    8    16    17 1
    9    16    19 1
   10    15    16 1
   11    14    15 1
   12    13    14 1
   13    13    18 1
   14    12    13 1
   15    11    12 1
   16     9    10 1
   17     9    11 1
   18     8     9 1
   19     7     8 1
   20     6     7 1
   21     6    24 1
   22     5     6 1
   23     4     5 1
   24     3     4 1
   25     3    25 1
   26     2     3 1
   27     1     2 1
   28    25    45 1
   29    22    44 1
   30    21    43 1
   31    20    42 1
   32    17    41 1
   33    14    40 1
   34    12    39 1
   35    11    37 1
   36    11    38 1
   37    10    34 1
   38    10    35 1
   39    10    36 1
   40     9    33 1
   41     8    31 1
   42     8    32 1
   43     7    30 1
   44     4    29 1
   45     1    26 1
   46     1    27 1
   47     1    28 1
@<TRIPOS>SUBSTRUCTURE
      1 L1                1 L.****               0 L.****  L.**** 
